<?xml version="1.0" ?>
<routes>
   <vType id="civilian" accel="2.6" decel="4.5" sigma="0.5" length="5" maxSpeed="13.89" color="0,1,0"/>
   <vType id="emergency" vClass="emergency" accel="3.5" decel="5.0" sigma="0" length="7" maxSpeed="20" color="1,0,0" guiShape="emergency">
      <param key="has.bluelight.device" value="true"/>
   </vType>
   <vehicle id="civilian_0" type="civilian" depart="943.2780489414439">
      <route edges="S_C C_W"/>
   </vehicle>
   <vehicle id="civilian_1" type="civilian" depart="2484.144692063751">
      <route edges="E_C C_S"/>
   </vehicle>
   <vehicle id="civilian_2" type="civilian" depart="2002.1550665945456">
      <route edges="S_C C_N"/>
   </vehicle>
   <vehicle id="civilian_3" type="civilian" depart="939.7487971461841">
      <route edges="E_C C_N"/>
   </vehicle>
   <vehicle id="civilian_4" type="civilian" depart="1173.3013176333552">
      <route edges="W_C C_N"/>
   </vehicle>
   <vehicle id="civilian_5" type="civilian" depart="2672.262662232237">
      <route edges="E_C C_W"/>
   </vehicle>
   <vehicle id="civilian_6" type="civilian" depart="3337.6180755925366">
      <route edges="N_C C_S"/>
   </vehicle>
   <vehicle id="civilian_7" type="civilian" depart="2438.183420713287">
      <route edges="N_C C_E"/>
   </vehicle>
   <vehicle id="civilian_8" type="civilian" depart="1746.265968680324">
      <route edges="W_C C_S"/>
   </vehicle>
   <vehicle id="civilian_9" type="civilian" depart="1656.211814572552">
      <route edges="N_C C_W"/>
   </vehicle>
   <vehicle id="civilian_10" type="civilian" depart="2278.7754790256167">
      <route edges="E_C C_S"/>
   </vehicle>
   <vehicle id="civilian_11" type="civilian" depart="2506.9534435223068">
      <route edges="S_C C_W"/>
   </vehicle>
   <vehicle id="civilian_12" type="civilian" depart="2638.1419994597186">
      <route edges="W_C C_S"/>
   </vehicle>
   <vehicle id="civilian_13" type="civilian" depart="3221.5208280256243">
      <route edges="S_C C_E"/>
   </vehicle>
   <vehicle id="civilian_14" type="civilian" depart="758.6628926244344">
      <route edges="W_C C_S"/>
   </vehicle>
   <vehicle id="civilian_15" type="civilian" depart="1033.2023610013425">
      <route edges="E_C C_W"/>
   </vehicle>
   <vehicle id="civilian_16" type="civilian" depart="92.01853109267755">
      <route edges="E_C C_N"/>
   </vehicle>
   <vehicle id="civilian_17" type="civilian" depart="42.961129444374095">
      <route edges="E_C C_N"/>
   </vehicle>
   <vehicle id="civilian_18" type="civilian" depart="3279.36867730609">
      <route edges="W_C C_E"/>
   </vehicle>
   <vehicle id="civilian_19" type="civilian" depart="3536.604391010574">
      <route edges="N_C C_S"/>
   </vehicle>
   <vehicle id="civilian_20" type="civilian" depart="775.2700445218148">
      <route edges="W_C C_E"/>
   </vehicle>
   <vehicle id="civilian_21" type="civilian" depart="2503.1394850534284">
      <route edges="N_C C_S"/>
   </vehicle>
   <vehicle id="civilian_22" type="civilian" depart="158.60170959562373">
      <route edges="N_C C_S"/>
   </vehicle>
   <vehicle id="civilian_23" type="civilian" depart="447.9952121971727">
      <route edges="E_C C_S"/>
   </vehicle>
   <vehicle id="civilian_24" type="civilian" depart="2766.9255364467595">
      <route edges="W_C C_E"/>
   </vehicle>
   <vehicle id="civilian_25" type="civilian" depart="258.94787383110804">
      <route edges="N_C C_E"/>
   </vehicle>
   <vehicle id="civilian_26" type="civilian" depart="840.5309452408804">
      <route edges="W_C C_N"/>
   </vehicle>
   <vehicle id="civilian_27" type="civilian" depart="2772.8917055069924">
      <route edges="W_C C_S"/>
   </vehicle>
   <vehicle id="civilian_28" type="civilian" depart="1210.7456841196495">
      <route edges="E_C C_W"/>
   </vehicle>
   <vehicle id="civilian_29" type="civilian" depart="3469.6626231534096">
      <route edges="W_C C_E"/>
   </vehicle>
   <vehicle id="civilian_30" type="civilian" depart="921.9470807152975">
      <route edges="N_C C_W"/>
   </vehicle>
   <vehicle id="civilian_31" type="civilian" depart="900.2801705329128">
      <route edges="E_C C_W"/>
   </vehicle>
   <vehicle id="civilian_32" type="civilian" depart="2323.2522174827072">
      <route edges="E_C C_S"/>
   </vehicle>
   <vehicle id="civilian_33" type="civilian" depart="731.9846829375101">
      <route edges="W_C C_E"/>
   </vehicle>
   <vehicle id="civilian_34" type="civilian" depart="1373.7091568752278">
      <route edges="S_C C_W"/>
   </vehicle>
   <vehicle id="civilian_35" type="civilian" depart="1045.7480110165181">
      <route edges="W_C C_E"/>
   </vehicle>
   <vehicle id="civilian_36" type="civilian" depart="250.6934467276809">
      <route edges="W_C C_E"/>
   </vehicle>
   <vehicle id="civilian_37" type="civilian" depart="3545.4194983279576">
      <route edges="E_C C_W"/>
   </vehicle>
   <vehicle id="civilian_38" type="civilian" depart="2452.4254933100483">
      <route edges="S_C C_E"/>
   </vehicle>
   <vehicle id="civilian_39" type="civilian" depart="8.983701686592127">
      <route edges="N_C C_W"/>
   </vehicle>
   <vehicle id="civilian_40" type="civilian" depart="520.7128363747775">
      <route edges="S_C C_N"/>
   </vehicle>
   <vehicle id="civilian_41" type="civilian" depart="1610.5928195262957">
      <route edges="S_C C_E"/>
   </vehicle>
   <vehicle id="civilian_42" type="civilian" depart="811.4648210705523">
      <route edges="W_C C_N"/>
   </vehicle>
   <vehicle id="civilian_43" type="civilian" depart="1584.2611556496831">
      <route edges="W_C C_N"/>
   </vehicle>
   <vehicle id="civilian_44" type="civilian" depart="1878.8955079351704">
      <route edges="W_C C_N"/>
   </vehicle>
   <vehicle id="civilian_45" type="civilian" depart="2721.4041824271194">
      <route edges="N_C C_S"/>
   </vehicle>
   <vehicle id="civilian_46" type="civilian" depart="397.96832047304815">
      <route edges="W_C C_S"/>
   </vehicle>
   <vehicle id="civilian_47" type="civilian" depart="3478.3477565873263">
      <route edges="S_C C_N"/>
   </vehicle>
   <vehicle id="civilian_48" type="civilian" depart="1018.6631316567955">
      <route edges="N_C C_E"/>
   </vehicle>
   <vehicle id="civilian_49" type="civilian" depart="1364.598947546094">
      <route edges="W_C C_N"/>
   </vehicle>
   <vehicle id="civilian_50" type="civilian" depart="2763.754115467324">
      <route edges="N_C C_S"/>
   </vehicle>
   <vehicle id="civilian_51" type="civilian" depart="1769.897803718888">
      <route edges="W_C C_S"/>
   </vehicle>
   <vehicle id="civilian_52" type="civilian" depart="1499.7621770673738">
      <route edges="S_C C_N"/>
   </vehicle>
   <vehicle id="civilian_53" type="civilian" depart="2433.7996124843585">
      <route edges="W_C C_N"/>
   </vehicle>
   <vehicle id="civilian_54" type="civilian" depart="368.749167783747">
      <route edges="W_C C_E"/>
   </vehicle>
   <vehicle id="civilian_55" type="civilian" depart="243.27115369738502">
      <route edges="N_C C_E"/>
   </vehicle>
   <vehicle id="civilian_56" type="civilian" depart="366.9126566658685">
      <route edges="W_C C_N"/>
   </vehicle>
   <vehicle id="civilian_57" type="civilian" depart="3388.7048328549636">
      <route edges="N_C C_S"/>
   </vehicle>
   <vehicle id="civilian_58" type="civilian" depart="860.9066101758847">
      <route edges="W_C C_E"/>
   </vehicle>
   <vehicle id="civilian_59" type="civilian" depart="3281.2375139856904">
      <route edges="E_C C_N"/>
   </vehicle>
   <vehicle id="civilian_60" type="civilian" depart="3023.470595192632">
      <route edges="E_C C_N"/>
   </vehicle>
   <vehicle id="civilian_61" type="civilian" depart="3371.153236252142">
      <route edges="E_C C_N"/>
   </vehicle>
   <vehicle id="civilian_62" type="civilian" depart="416.0784695931603">
      <route edges="E_C C_S"/>
   </vehicle>
   <vehicle id="civilian_63" type="civilian" depart="2468.8642320185004">
      <route edges="E_C C_S"/>
   </vehicle>
   <vehicle id="civilian_64" type="civilian" depart="2458.8188085159045">
      <route edges="W_C C_N"/>
   </vehicle>
   <vehicle id="civilian_65" type="civilian" depart="1157.562787014085">
      <route edges="S_C C_W"/>
   </vehicle>
   <vehicle id="civilian_66" type="civilian" depart="1654.459362901616">
      <route edges="E_C C_W"/>
   </vehicle>
   <vehicle id="civilian_67" type="civilian" depart="1014.242491090231">
      <route edges="W_C C_E"/>
   </vehicle>
   <vehicle id="civilian_68" type="civilian" depart="438.8118697554235">
      <route edges="S_C C_W"/>
   </vehicle>
   <vehicle id="civilian_69" type="civilian" depart="451.24331242368226">
      <route edges="S_C C_E"/>
   </vehicle>
   <vehicle id="civilian_70" type="civilian" depart="1812.4847182566616">
      <route edges="S_C C_W"/>
   </vehicle>
   <vehicle id="civilian_71" type="civilian" depart="59.38148971653585">
      <route edges="W_C C_S"/>
   </vehicle>
   <vehicle id="civilian_72" type="civilian" depart="1111.0399835705266">
      <route edges="E_C C_S"/>
   </vehicle>
   <vehicle id="civilian_73" type="civilian" depart="327.4387519514795">
      <route edges="S_C C_N"/>
   </vehicle>
   <vehicle id="civilian_74" type="civilian" depart="1812.880659090832">
      <route edges="S_C C_E"/>
   </vehicle>
   <vehicle id="civilian_75" type="civilian" depart="48.10474832135188">
      <route edges="E_C C_W"/>
   </vehicle>
   <vehicle id="civilian_76" type="civilian" depart="1600.659708238902">
      <route edges="S_C C_E"/>
   </vehicle>
   <vehicle id="civilian_77" type="civilian" depart="936.1014362988174">
      <route edges="S_C C_N"/>
   </vehicle>
   <vehicle id="civilian_78" type="civilian" depart="50.34570507143093">
      <route edges="N_C C_E"/>
   </vehicle>
   <vehicle id="civilian_79" type="civilian" depart="1838.073717045795">
      <route edges="E_C C_S"/>
   </vehicle>
   <vehicle id="civilian_80" type="civilian" depart="908.5734003651237">
      <route edges="S_C C_N"/>
   </vehicle>
   <vehicle id="civilian_81" type="civilian" depart="2294.325620667983">
      <route edges="E_C C_N"/>
   </vehicle>
   <vehicle id="civilian_82" type="civilian" depart="1737.198287446153">
      <route edges="W_C C_S"/>
   </vehicle>
   <vehicle id="civilian_83" type="civilian" depart="3149.2447507332904">
      <route edges="E_C C_N"/>
   </vehicle>
   <vehicle id="civilian_84" type="civilian" depart="281.37642572102885">
      <route edges="E_C C_W"/>
   </vehicle>
   <vehicle id="civilian_85" type="civilian" depart="941.8532668113427">
      <route edges="E_C C_S"/>
   </vehicle>
   <vehicle id="civilian_86" type="civilian" depart="832.0964950286613">
      <route edges="S_C C_N"/>
   </vehicle>
   <vehicle id="civilian_87" type="civilian" depart="3066.1279367280563">
      <route edges="E_C C_N"/>
   </vehicle>
   <vehicle id="civilian_88" type="civilian" depart="1161.016578639712">
      <route edges="S_C C_W"/>
   </vehicle>
   <vehicle id="civilian_89" type="civilian" depart="2866.0708195814054">
      <route edges="N_C C_S"/>
   </vehicle>
   <vehicle id="civilian_90" type="civilian" depart="2124.7142983328945">
      <route edges="E_C C_N"/>
   </vehicle>
   <vehicle id="civilian_91" type="civilian" depart="2072.4761822088467">
      <route edges="W_C C_S"/>
   </vehicle>
   <vehicle id="civilian_92" type="civilian" depart="264.77861075821284">
      <route edges="S_C C_N"/>
   </vehicle>
   <vehicle id="civilian_93" type="civilian" depart="477.0879975414966">
      <route edges="N_C C_W"/>
   </vehicle>
   <vehicle id="civilian_94" type="civilian" depart="1939.5538027815774">
      <route edges="W_C C_S"/>
   </vehicle>
   <vehicle id="civilian_95" type="civilian" depart="3528.0483739401793">
      <route edges="N_C C_W"/>
   </vehicle>
   <vehicle id="civilian_96" type="civilian" depart="3020.9702485085863">
      <route edges="E_C C_N"/>
   </vehicle>
   <vehicle id="civilian_97" type="civilian" depart="2517.015522047906">
      <route edges="E_C C_N"/>
   </vehicle>
   <vehicle id="civilian_98" type="civilian" depart="2307.795771496614">
      <route edges="E_C C_W"/>
   </vehicle>
   <vehicle id="civilian_99" type="civilian" depart="1468.8927868269807">
      <route edges="E_C C_S"/>
   </vehicle>
   <vehicle id="civilian_100" type="civilian" depart="2331.620847770063">
      <route edges="W_C C_N"/>
   </vehicle>
   <vehicle id="civilian_101" type="civilian" depart="1258.791587784572">
      <route edges="N_C C_W"/>
   </vehicle>
   <vehicle id="civilian_102" type="civilian" depart="3436.621043358761">
      <route edges="W_C C_N"/>
   </vehicle>
   <vehicle id="civilian_103" type="civilian" depart="2544.83849425858">
      <route edges="W_C C_N"/>
   </vehicle>
   <vehicle id="civilian_104" type="civilian" depart="374.97040778558056">
      <route edges="E_C C_S"/>
   </vehicle>
   <vehicle id="civilian_105" type="civilian" depart="129.21072729104895">
      <route edges="W_C C_E"/>
   </vehicle>
   <vehicle id="civilian_106" type="civilian" depart="689.580297211346">
      <route edges="N_C C_W"/>
   </vehicle>
   <vehicle id="civilian_107" type="civilian" depart="131.6109688697565">
      <route edges="E_C C_S"/>
   </vehicle>
   <vehicle id="civilian_108" type="civilian" depart="444.08397380248584">
      <route edges="N_C C_W"/>
   </vehicle>
   <vehicle id="civilian_109" type="civilian" depart="2803.5297151434524">
      <route edges="S_C C_N"/>
   </vehicle>
   <vehicle id="civilian_110" type="civilian" depart="2658.1800270930385">
      <route edges="E_C C_S"/>
   </vehicle>
   <vehicle id="civilian_111" type="civilian" depart="191.88285154442104">
      <route edges="N_C C_W"/>
   </vehicle>
   <vehicle id="civilian_112" type="civilian" depart="2838.269966614136">
      <route edges="W_C C_E"/>
   </vehicle>
   <vehicle id="civilian_113" type="civilian" depart="2666.732090193325">
      <route edges="N_C C_S"/>
   </vehicle>
   <vehicle id="civilian_114" type="civilian" depart="586.0287923701242">
      <route edges="W_C C_E"/>
   </vehicle>
   <vehicle id="civilian_115" type="civilian" depart="2331.233719398642">
      <route edges="E_C C_S"/>
   </vehicle>
   <vehicle id="civilian_116" type="civilian" depart="1329.0506570219252">
      <route edges="S_C C_N"/>
   </vehicle>
   <vehicle id="civilian_117" type="civilian" depart="2025.924623755389">
      <route edges="N_C C_S"/>
   </vehicle>
   <vehicle id="civilian_118" type="civilian" depart="3004.2266636334134">
      <route edges="N_C C_W"/>
   </vehicle>
   <vehicle id="civilian_119" type="civilian" depart="2534.3883519214887">
      <route edges="S_C C_W"/>
   </vehicle>
   <vehicle id="civilian_120" type="civilian" depart="3252.935062133114">
      <route edges="E_C C_W"/>
   </vehicle>
   <vehicle id="civilian_121" type="civilian" depart="1807.9785552681574">
      <route edges="E_C C_S"/>
   </vehicle>
   <vehicle id="civilian_122" type="civilian" depart="1805.5200035447535">
      <route edges="W_C C_E"/>
   </vehicle>
   <vehicle id="civilian_123" type="civilian" depart="1376.6415437629778">
      <route edges="W_C C_E"/>
   </vehicle>
   <vehicle id="civilian_124" type="civilian" depart="3141.739507409413">
      <route edges="E_C C_S"/>
   </vehicle>
   <vehicle id="civilian_125" type="civilian" depart="378.96661426266223">
      <route edges="N_C C_S"/>
   </vehicle>
   <vehicle id="civilian_126" type="civilian" depart="1598.9252516103002">
      <route edges="S_C C_N"/>
   </vehicle>
   <vehicle id="civilian_127" type="civilian" depart="1674.3470589835906">
      <route edges="W_C C_E"/>
   </vehicle>
   <vehicle id="civilian_128" type="civilian" depart="1984.7690223320656">
      <route edges="E_C C_S"/>
   </vehicle>
   <vehicle id="civilian_129" type="civilian" depart="295.9994637299631">
      <route edges="W_C C_S"/>
   </vehicle>
   <vehicle id="civilian_130" type="civilian" depart="2189.0144619090543">
      <route edges="N_C C_E"/>
   </vehicle>
   <vehicle id="civilian_131" type="civilian" depart="3060.5263506954434">
      <route edges="E_C C_N"/>
   </vehicle>
   <vehicle id="civilian_132" type="civilian" depart="474.74103918201183">
      <route edges="S_C C_E"/>
   </vehicle>
   <vehicle id="civilian_133" type="civilian" depart="3165.2858375808646">
      <route edges="S_C C_E"/>
   </vehicle>
   <vehicle id="civilian_134" type="civilian" depart="818.163939445797">
      <route edges="S_C C_E"/>
   </vehicle>
   <vehicle id="civilian_135" type="civilian" depart="2270.1100930816833">
      <route edges="E_C C_N"/>
   </vehicle>
   <vehicle id="civilian_136" type="civilian" depart="1457.575086690572">
      <route edges="S_C C_W"/>
   </vehicle>
   <vehicle id="civilian_137" type="civilian" depart="2427.662872486689">
      <route edges="N_C C_S"/>
   </vehicle>
   <vehicle id="civilian_138" type="civilian" depart="2827.4656038753233">
      <route edges="W_C C_E"/>
   </vehicle>
   <vehicle id="civilian_139" type="civilian" depart="1292.1695106418601">
      <route edges="N_C C_W"/>
   </vehicle>
   <vehicle id="civilian_140" type="civilian" depart="1857.5408625343248">
      <route edges="E_C C_N"/>
   </vehicle>
   <vehicle id="civilian_141" type="civilian" depart="2696.2257520318108">
      <route edges="E_C C_S"/>
   </vehicle>
   <vehicle id="civilian_142" type="civilian" depart="1421.0987190648782">
      <route edges="S_C C_N"/>
   </vehicle>
   <vehicle id="civilian_143" type="civilian" depart="1779.5801330617162">
      <route edges="E_C C_S"/>
   </vehicle>
   <vehicle id="civilian_144" type="civilian" depart="1597.831169377083">
      <route edges="S_C C_W"/>
   </vehicle>
   <vehicle id="civilian_145" type="civilian" depart="1494.5387025033988">
      <route edges="W_C C_N"/>
   </vehicle>
   <vehicle id="civilian_146" type="civilian" depart="3090.375039635148">
      <route edges="W_C C_N"/>
   </vehicle>
   <vehicle id="civilian_147" type="civilian" depart="2312.698312670233">
      <route edges="S_C C_W"/>
   </vehicle>
   <vehicle id="civilian_148" type="civilian" depart="3518.962752709553">
      <route edges="W_C C_E"/>
   </vehicle>
   <vehicle id="civilian_149" type="civilian" depart="2650.0414650108223">
      <route edges="E_C C_S"/>
   </vehicle>
   <vehicle id="civilian_150" type="civilian" depart="3477.3462930255705">
      <route edges="N_C C_E"/>
   </vehicle>
   <vehicle id="civilian_151" type="civilian" depart="3033.632116148956">
      <route edges="N_C C_S"/>
   </vehicle>
   <vehicle id="civilian_152" type="civilian" depart="1170.2009842706768">
      <route edges="E_C C_S"/>
   </vehicle>
   <vehicle id="civilian_153" type="civilian" depart="2233.1827406525563">
      <route edges="S_C C_N"/>
   </vehicle>
   <vehicle id="civilian_154" type="civilian" depart="1667.474874627106">
      <route edges="W_C C_N"/>
   </vehicle>
   <vehicle id="civilian_155" type="civilian" depart="1484.0874841884117">
      <route edges="E_C C_W"/>
   </vehicle>
   <vehicle id="civilian_156" type="civilian" depart="3252.8014718594063">
      <route edges="N_C C_W"/>
   </vehicle>
   <vehicle id="civilian_157" type="civilian" depart="1047.8037717434302">
      <route edges="E_C C_S"/>
   </vehicle>
   <vehicle id="civilian_158" type="civilian" depart="2964.8730011536873">
      <route edges="N_C C_W"/>
   </vehicle>
   <vehicle id="civilian_159" type="civilian" depart="1550.7639326898409">
      <route edges="E_C C_N"/>
   </vehicle>
   <vehicle id="civilian_160" type="civilian" depart="1521.9729638996048">
      <route edges="S_C C_W"/>
   </vehicle>
   <vehicle id="civilian_161" type="civilian" depart="3347.768444060621">
      <route edges="S_C C_W"/>
   </vehicle>
   <vehicle id="civilian_162" type="civilian" depart="3505.856755172846">
      <route edges="N_C C_S"/>
   </vehicle>
   <vehicle id="civilian_163" type="civilian" depart="2572.004861654381">
      <route edges="N_C C_E"/>
   </vehicle>
   <vehicle id="civilian_164" type="civilian" depart="2179.893520592137">
      <route edges="N_C C_S"/>
   </vehicle>
   <vehicle id="civilian_165" type="civilian" depart="2269.0112588181564">
      <route edges="N_C C_S"/>
   </vehicle>
   <vehicle id="civilian_166" type="civilian" depart="2216.1327699978483">
      <route edges="N_C C_E"/>
   </vehicle>
   <vehicle id="civilian_167" type="civilian" depart="1521.871800481074">
      <route edges="S_C C_N"/>
   </vehicle>
   <vehicle id="civilian_168" type="civilian" depart="3176.2539894319607">
      <route edges="E_C C_S"/>
   </vehicle>
   <vehicle id="civilian_169" type="civilian" depart="1073.5626822151946">
      <route edges="S_C C_E"/>
   </vehicle>
   <vehicle id="civilian_170" type="civilian" depart="1288.7423861750726">
      <route edges="W_C C_N"/>
   </vehicle>
   <vehicle id="civilian_171" type="civilian" depart="1058.1672563423">
      <route edges="W_C C_S"/>
   </vehicle>
   <vehicle id="civilian_172" type="civilian" depart="976.8389879689448">
      <route edges="S_C C_N"/>
   </vehicle>
   <vehicle id="civilian_173" type="civilian" depart="1667.7500890827082">
      <route edges="E_C C_S"/>
   </vehicle>
   <vehicle id="civilian_174" type="civilian" depart="1554.5834827656988">
      <route edges="N_C C_W"/>
   </vehicle>
   <vehicle id="civilian_175" type="civilian" depart="2266.364125600447">
      <route edges="W_C C_E"/>
   </vehicle>
   <vehicle id="civilian_176" type="civilian" depart="691.6320993303658">
      <route edges="E_C C_S"/>
   </vehicle>
   <vehicle id="civilian_177" type="civilian" depart="628.706210465633">
      <route edges="S_C C_E"/>
   </vehicle>
   <vehicle id="civilian_178" type="civilian" depart="3064.654933577243">
      <route edges="N_C C_W"/>
   </vehicle>
   <vehicle id="civilian_179" type="civilian" depart="2882.684701400356">
      <route edges="S_C C_W"/>
   </vehicle>
   <vehicle id="civilian_180" type="civilian" depart="1889.715628365266">
      <route edges="S_C C_N"/>
   </vehicle>
   <vehicle id="civilian_181" type="civilian" depart="3374.2786837873523">
      <route edges="N_C C_S"/>
   </vehicle>
   <vehicle id="civilian_182" type="civilian" depart="1418.235545060921">
      <route edges="S_C C_W"/>
   </vehicle>
   <vehicle id="civilian_183" type="civilian" depart="38.00365091535398">
      <route edges="W_C C_S"/>
   </vehicle>
   <vehicle id="civilian_184" type="civilian" depart="203.33167809274028">
      <route edges="N_C C_S"/>
   </vehicle>
   <vehicle id="civilian_185" type="civilian" depart="2685.334207951698">
      <route edges="N_C C_S"/>
   </vehicle>
   <vehicle id="civilian_186" type="civilian" depart="1190.026865336543">
      <route edges="E_C C_S"/>
   </vehicle>
   <vehicle id="civilian_187" type="civilian" depart="2422.8367644068903">
      <route edges="S_C C_N"/>
   </vehicle>
   <vehicle id="civilian_188" type="civilian" depart="1952.820663860813">
      <route edges="W_C C_E"/>
   </vehicle>
   <vehicle id="civilian_189" type="civilian" depart="1536.3595654392989">
      <route edges="N_C C_E"/>
   </vehicle>
   <vehicle id="civilian_190" type="civilian" depart="388.7188719622582">
      <route edges="E_C C_W"/>
   </vehicle>
   <vehicle id="civilian_191" type="civilian" depart="2351.034525131367">
      <route edges="W_C C_N"/>
   </vehicle>
   <vehicle id="civilian_192" type="civilian" depart="2610.262793530633">
      <route edges="N_C C_W"/>
   </vehicle>
   <vehicle id="civilian_193" type="civilian" depart="2204.4096605253494">
      <route edges="W_C C_S"/>
   </vehicle>
   <vehicle id="civilian_194" type="civilian" depart="24.44491993553082">
      <route edges="W_C C_E"/>
   </vehicle>
   <vehicle id="civilian_195" type="civilian" depart="394.2924722024663">
      <route edges="S_C C_N"/>
   </vehicle>
   <vehicle id="civilian_196" type="civilian" depart="3472.6071235548775">
      <route edges="S_C C_W"/>
   </vehicle>
   <vehicle id="civilian_197" type="civilian" depart="947.9347546122466">
      <route edges="W_C C_S"/>
   </vehicle>
   <vehicle id="civilian_198" type="civilian" depart="1081.3563088489052">
      <route edges="N_C C_S"/>
   </vehicle>
   <vehicle id="civilian_199" type="civilian" depart="593.383896998516">
      <route edges="W_C C_S"/>
   </vehicle>
   <vehicle id="civilian_200" type="civilian" depart="1881.9516197477005">
      <route edges="N_C C_W"/>
   </vehicle>
   <vehicle id="civilian_201" type="civilian" depart="9.171908887397073">
      <route edges="W_C C_N"/>
   </vehicle>
   <vehicle id="civilian_202" type="civilian" depart="1168.9216240650724">
      <route edges="N_C C_S"/>
   </vehicle>
   <vehicle id="civilian_203" type="civilian" depart="1222.09718976224">
      <route edges="S_C C_N"/>
   </vehicle>
   <vehicle id="civilian_204" type="civilian" depart="626.5650667511238">
      <route edges="E_C C_S"/>
   </vehicle>
   <vehicle id="civilian_205" type="civilian" depart="3258.9755932074127">
      <route edges="E_C C_S"/>
   </vehicle>
   <vehicle id="civilian_206" type="civilian" depart="591.0058355952787">
      <route edges="S_C C_W"/>
   </vehicle>
   <vehicle id="civilian_207" type="civilian" depart="260.74676695215857">
      <route edges="W_C C_S"/>
   </vehicle>
   <vehicle id="civilian_208" type="civilian" depart="1092.7484991222493">
      <route edges="E_C C_W"/>
   </vehicle>
   <vehicle id="civilian_209" type="civilian" depart="902.9863103489238">
      <route edges="E_C C_N"/>
   </vehicle>
   <vehicle id="civilian_210" type="civilian" depart="602.6066967391713">
      <route edges="S_C C_W"/>
   </vehicle>
   <vehicle id="civilian_211" type="civilian" depart="2922.2774149990796">
      <route edges="N_C C_E"/>
   </vehicle>
   <vehicle id="civilian_212" type="civilian" depart="2738.7161080869264">
      <route edges="N_C C_W"/>
   </vehicle>
   <vehicle id="civilian_213" type="civilian" depart="1747.0269894003443">
      <route edges="W_C C_E"/>
   </vehicle>
   <vehicle id="civilian_214" type="civilian" depart="1954.5291806849061">
      <route edges="S_C C_W"/>
   </vehicle>
   <vehicle id="civilian_215" type="civilian" depart="3588.30050510663">
      <route edges="W_C C_S"/>
   </vehicle>
   <vehicle id="civilian_216" type="civilian" depart="2733.044313322771">
      <route edges="N_C C_E"/>
   </vehicle>
   <vehicle id="civilian_217" type="civilian" depart="981.4407457819005">
      <route edges="E_C C_W"/>
   </vehicle>
   <vehicle id="civilian_218" type="civilian" depart="785.1937365547844">
      <route edges="S_C C_N"/>
   </vehicle>
   <vehicle id="civilian_219" type="civilian" depart="1095.499376823487">
      <route edges="N_C C_W"/>
   </vehicle>
   <vehicle id="civilian_220" type="civilian" depart="850.8453020703928">
      <route edges="N_C C_S"/>
   </vehicle>
   <vehicle id="civilian_221" type="civilian" depart="3127.5260144698586">
      <route edges="W_C C_N"/>
   </vehicle>
   <vehicle id="civilian_222" type="civilian" depart="45.495080749544535">
      <route edges="E_C C_N"/>
   </vehicle>
   <vehicle id="civilian_223" type="civilian" depart="3277.0275447895783">
      <route edges="W_C C_N"/>
   </vehicle>
   <vehicle id="civilian_224" type="civilian" depart="3123.4948150859686">
      <route edges="S_C C_W"/>
   </vehicle>
   <vehicle id="civilian_225" type="civilian" depart="2869.8127945804563">
      <route edges="N_C C_S"/>
   </vehicle>
   <vehicle id="civilian_226" type="civilian" depart="556.8765998999612">
      <route edges="N_C C_S"/>
   </vehicle>
   <vehicle id="civilian_227" type="civilian" depart="2739.720633300489">
      <route edges="W_C C_E"/>
   </vehicle>
   <vehicle id="civilian_228" type="civilian" depart="3357.8236908026865">
      <route edges="S_C C_W"/>
   </vehicle>
   <vehicle id="civilian_229" type="civilian" depart="2938.8707887327073">
      <route edges="N_C C_W"/>
   </vehicle>
   <vehicle id="civilian_230" type="civilian" depart="3572.4171922945316">
      <route edges="E_C C_W"/>
   </vehicle>
   <vehicle id="civilian_231" type="civilian" depart="428.00417692085057">
      <route edges="W_C C_S"/>
   </vehicle>
   <vehicle id="civilian_232" type="civilian" depart="1260.7333528942606">
      <route edges="S_C C_N"/>
   </vehicle>
   <vehicle id="civilian_233" type="civilian" depart="2285.048755744795">
      <route edges="S_C C_E"/>
   </vehicle>
   <vehicle id="civilian_234" type="civilian" depart="2562.2754319902056">
      <route edges="W_C C_N"/>
   </vehicle>
   <vehicle id="civilian_235" type="civilian" depart="3515.7186580698153">
      <route edges="N_C C_S"/>
   </vehicle>
   <vehicle id="civilian_236" type="civilian" depart="350.2332416479507">
      <route edges="S_C C_N"/>
   </vehicle>
   <vehicle id="civilian_237" type="civilian" depart="942.8052014279018">
      <route edges="N_C C_W"/>
   </vehicle>
   <vehicle id="civilian_238" type="civilian" depart="137.4663045178606">
      <route edges="W_C C_N"/>
   </vehicle>
   <vehicle id="civilian_239" type="civilian" depart="2483.0821046918377">
      <route edges="N_C C_S"/>
   </vehicle>
   <vehicle id="civilian_240" type="civilian" depart="1604.6787613567374">
      <route edges="E_C C_S"/>
   </vehicle>
   <vehicle id="civilian_241" type="civilian" depart="1317.8092225437488">
      <route edges="W_C C_N"/>
   </vehicle>
   <vehicle id="civilian_242" type="civilian" depart="555.5144717560129">
      <route edges="S_C C_E"/>
   </vehicle>
   <vehicle id="civilian_243" type="civilian" depart="2722.123507638978">
      <route edges="S_C C_W"/>
   </vehicle>
   <vehicle id="civilian_244" type="civilian" depart="1193.5496931352163">
      <route edges="N_C C_W"/>
   </vehicle>
   <vehicle id="civilian_245" type="civilian" depart="3583.842140905747">
      <route edges="E_C C_S"/>
   </vehicle>
   <vehicle id="civilian_246" type="civilian" depart="3408.8653716123767">
      <route edges="N_C C_E"/>
   </vehicle>
   <vehicle id="civilian_247" type="civilian" depart="1755.145849017218">
      <route edges="W_C C_N"/>
   </vehicle>
   <vehicle id="civilian_248" type="civilian" depart="2048.5660240046022">
      <route edges="E_C C_N"/>
   </vehicle>