<?xml version="1.0" encoding="UTF-8"?>

<!-- generated on 2025-11-11 21:14:26 by Eclipse SUMO netedit Version 1.24.0
<neteditConfiguration xmlns:xsi="http://www.w3.org/2001/XMLSchema-instance" xsi:noNamespaceSchemaLocation="http://sumo.dlr.de/xsd/neteditConfiguration.xsd">

    <input>
        <sumo-net-file value="C:\Users\shubh\Documents\T40-RL-Based-Smart-Traffic-Light-System-for-Emergency-Response\data\networks\intersection.net.xml"/>
    </input>

    <output>
        <output-file value="C:\Users\shubh\Documents\T40-RL-Based-Smart-Traffic-Light-System-for-Emergency-Response\data\networks\intersection.net.xml"/>
    </output>

    <processing>
        <offset.disable-normalization value="true"/>
    </processing>

    <junctions>
        <no-turnarounds value="true"/>
    </junctions>

    <netedit>
        <new-network value="false"/>
    </netedit>

</neteditConfiguration>
-->

<net version="1.20" junctionCornerDetail="5" limitTurnSpeed="5.50" xmlns:xsi="http://www.w3.org/2001/XMLSchema-instance" xsi:noNamespaceSchemaLocation="http://sumo.dlr.de/xsd/net_file.xsd">

    <location netOffset="0.00,0.00" convBoundary="-600.00,-600.00,600.00,600.00" origBoundary="10000000000.00,10000000000.00,-10000000000.00,-10000000000.00" projParameter="!"/>

    <edge id=":C1_0" function="internal">
        <lane id=":C1_0_0" index="0" speed="6.51" length="9.03" shape="-311.20,316.80 -311.55,314.35 -312.60,312.60 -314.35,311.55 -316.80,311.20"/>
    </edge>
    <edge id=":C1_1" function="internal">
        <lane id=":C1_1_0" index="0" speed="13.89" length="33.60" shape="-311.20,316.80 -311.20,283.20"/>
        <lane id=":C1_1_1" index="1" speed="13.89" length="33.60" shape="-308.00,316.80 -308.00,283.20"/>
        <lane id=":C1_1_2" index="2" speed="13.89" length="33.60" shape="-304.80,316.80 -304.80,283.20"/>
        <lane id=":C1_1_3" index="3" speed="13.89" length="33.60" shape="-301.60,316.80 -301.60,283.20"/>
    </edge>
    <edge id=":C1_5" function="internal">
        <lane id=":C1_5_0" index="0" speed="11.36" length="5.01" shape="-301.60,316.80 -300.89,311.84"/>
    </edge>
    <edge id=":C1_24" function="internal">
        <lane id=":C1_24_0" index="0" speed="11.36" length="24.66" shape="-300.89,311.84 -300.45,308.75 -297.00,303.00 -291.25,299.55 -283.20,298.40"/>
    </edge>
    <edge id=":C1_6" function="internal">
        <lane id=":C1_6_0" index="0" speed="6.51" length="9.03" shape="-283.20,311.20 -285.65,311.55 -287.40,312.60 -288.45,314.35 -288.80,316.80"/>
    </edge>
    <edge id=":C1_7" function="internal">
        <lane id=":C1_7_0" index="0" speed="13.89" length="33.60" shape="-283.20,311.20 -316.80,311.20"/>
        <lane id=":C1_7_1" index="1" speed="13.89" length="33.60" shape="-283.20,308.00 -316.80,308.00"/>
        <lane id=":C1_7_2" index="2" speed="13.89" length="33.60" shape="-283.20,304.80 -316.80,304.80"/>
        <lane id=":C1_7_3" index="3" speed="13.89" length="33.60" shape="-283.20,301.60 -316.80,301.60"/>
    </edge>
    <edge id=":C1_11" function="internal">
        <lane id=":C1_11_0" index="0" speed="11.36" length="5.01" shape="-283.20,301.60 -288.16,300.89"/>
    </edge>
    <edge id=":C1_25" function="internal">
        <lane id=":C1_25_0" index="0" speed="11.36" length="24.66" shape="-288.16,300.89 -291.25,300.45 -297.00,297.00 -300.45,291.25 -301.60,283.20"/>
    </edge>
    <edge id=":C1_12" function="internal">
        <lane id=":C1_12_0" index="0" speed="6.51" length="9.03" shape="-288.80,283.20 -288.45,285.65 -287.40,287.40 -285.65,288.45 -283.20,288.80"/>
    </edge>
    <edge id=":C1_13" function="internal">
        <lane id=":C1_13_0" index="0" speed="13.89" length="33.60" shape="-288.80,283.20 -288.80,316.80"/>
        <lane id=":C1_13_1" index="1" speed="13.89" length="33.60" shape="-292.00,283.20 -292.00,316.80"/>
        <lane id=":C1_13_2" index="2" speed="13.89" length="33.60" shape="-295.20,283.20 -295.20,316.80"/>
        <lane id=":C1_13_3" index="3" speed="13.89" length="33.60" shape="-298.40,283.20 -298.40,316.80"/>
    </edge>
    <edge id=":C1_17" function="internal">
        <lane id=":C1_17_0" index="0" speed="11.36" length="5.01" shape="-298.40,283.20 -299.11,288.16"/>
    </edge>
    <edge id=":C1_26" function="internal">
        <lane id=":C1_26_0" index="0" speed="11.36" length="24.66" shape="-299.11,288.16 -299.55,291.25 -303.00,297.00 -308.75,300.45 -316.80,301.60"/>
    </edge>
    <edge id=":C1_18" function="internal">
        <lane id=":C1_18_0" index="0" speed="6.51" length="9.03" shape="-316.80,288.80 -314.35,288.45 -312.60,287.40 -311.55,285.65 -311.20,283.20"/>
    </edge>
    <edge id=":C1_19" function="internal">
        <lane id=":C1_19_0" index="0" speed="13.89" length="33.60" shape="-316.80,288.80 -283.20,288.80"/>
        <lane id=":C1_19_1" index="1" speed="13.89" length="33.60" shape="-316.80,292.00 -283.20,292.00"/>
        <lane id=":C1_19_2" index="2" speed="13.89" length="33.60" shape="-316.80,295.20 -283.20,295.20"/>
        <lane id=":C1_19_3" index="3" speed="13.89" length="33.60" shape="-316.80,298.40 -283.20,298.40"/>
    </edge>
    <edge id=":C1_23" function="internal">
        <lane id=":C1_23_0" index="0" speed="11.36" length="5.01" shape="-316.80,298.40 -311.84,299.11"/>
    </edge>
    <edge id=":C1_27" function="internal">
        <lane id=":C1_27_0" index="0" speed="11.36" length="24.66" shape="-311.84,299.11 -308.75,299.55 -303.00,303.00 -299.55,308.75 -298.40,316.80"/>
    </edge>
    <edge id=":C2_0" function="internal">
        <lane id=":C2_0_0" index="0" speed="6.51" length="9.03" shape="-311.20,16.80 -311.55,14.35 -312.60,12.60 -314.35,11.55 -316.80,11.20"/>
    </edge>
    <edge id=":C2_1" function="internal">
        <lane id=":C2_1_0" index="0" speed="13.89" length="33.60" shape="-311.20,16.80 -311.20,-16.80"/>
        <lane id=":C2_1_1" index="1" speed="13.89" length="33.60" shape="-308.00,16.80 -308.00,-16.80"/>
        <lane id=":C2_1_2" index="2" speed="13.89" length="33.60" shape="-304.80,16.80 -304.80,-16.80"/>
        <lane id=":C2_1_3" index="3" speed="13.89" length="33.60" shape="-301.60,16.80 -301.60,-16.80"/>
    </edge>
    <edge id=":C2_5" function="internal">
        <lane id=":C2_5_0" index="0" speed="11.36" length="5.01" shape="-301.60,16.80 -300.89,11.84"/>
    </edge>
    <edge id=":C2_24" function="internal">
        <lane id=":C2_24_0" index="0" speed="11.36" length="24.66" shape="-300.89,11.84 -300.45,8.75 -297.00,3.00 -291.25,-0.45 -283.20,-1.60"/>
    </edge>
    <edge id=":C2_6" function="internal">
        <lane id=":C2_6_0" index="0" speed="6.51" length="9.03" shape="-283.20,11.20 -285.65,11.55 -287.40,12.60 -288.45,14.35 -288.80,16.80"/>
    </edge>
    <edge id=":C2_7" function="internal">
        <lane id=":C2_7_0" index="0" speed="13.89" length="33.60" shape="-283.20,11.20 -316.80,11.20"/>
        <lane id=":C2_7_1" index="1" speed="13.89" length="33.60" shape="-283.20,8.00 -316.80,8.00"/>
        <lane id=":C2_7_2" index="2" speed="13.89" length="33.60" shape="-283.20,4.80 -316.80,4.80"/>
        <lane id=":C2_7_3" index="3" speed="13.89" length="33.60" shape="-283.20,1.60 -316.80,1.60"/>
    </edge>
    <edge id=":C2_11" function="internal">
        <lane id=":C2_11_0" index="0" speed="11.36" length="5.01" shape="-283.20,1.60 -288.16,0.89"/>
    </edge>
    <edge id=":C2_25" function="internal">
        <lane id=":C2_25_0" index="0" speed="11.36" length="24.66" shape="-288.16,0.89 -291.25,0.45 -297.00,-3.00 -300.45,-8.75 -301.60,-16.80"/>
    </edge>
    <edge id=":C2_12" function="internal">
        <lane id=":C2_12_0" index="0" speed="6.51" length="9.03" shape="-288.80,-16.80 -288.45,-14.35 -287.40,-12.60 -285.65,-11.55 -283.20,-11.20"/>
    </edge>
    <edge id=":C2_13" function="internal">
        <lane id=":C2_13_0" index="0" speed="13.89" length="33.60" shape="-288.80,-16.80 -288.80,16.80"/>
        <lane id=":C2_13_1" index="1" speed="13.89" length="33.60" shape="-292.00,-16.80 -292.00,16.80"/>
        <lane id=":C2_13_2" index="2" speed="13.89" length="33.60" shape="-295.20,-16.80 -295.20,16.80"/>
        <lane id=":C2_13_3" index="3" speed="13.89" length="33.60" shape="-298.40,-16.80 -298.40,16.80"/>
    </edge>
    <edge id=":C2_17" function="internal">
        <lane id=":C2_17_0" index="0" speed="11.36" length="5.01" shape="-298.40,-16.80 -299.11,-11.84"/>
    </edge>
    <edge id=":C2_26" function="internal">
        <lane id=":C2_26_0" index="0" speed="11.36" length="24.66" shape="-299.11,-11.84 -299.55,-8.75 -303.00,-3.00 -308.75,0.45 -316.80,1.60"/>
    </edge>
    <edge id=":C2_18" function="internal">
        <lane id=":C2_18_0" index="0" speed="6.51" length="9.03" shape="-316.80,-11.20 -314.35,-11.55 -312.60,-12.60 -311.55,-14.35 -311.20,-16.80"/>
    </edge>
    <edge id=":C2_19" function="internal">
        <lane id=":C2_19_0" index="0" speed="13.89" length="33.60" shape="-316.80,-11.20 -283.20,-11.20"/>
        <lane id=":C2_19_1" index="1" speed="13.89" length="33.60" shape="-316.80,-8.00 -283.20,-8.00"/>
        <lane id=":C2_19_2" index="2" speed="13.89" length="33.60" shape="-316.80,-4.80 -283.20,-4.80"/>
        <lane id=":C2_19_3" index="3" speed="13.89" length="33.60" shape="-316.80,-1.60 -283.20,-1.60"/>
    </edge>
    <edge id=":C2_23" function="internal">
        <lane id=":C2_23_0" index="0" speed="11.36" length="5.01" shape="-316.80,-1.60 -311.84,-0.89"/>
    </edge>
    <edge id=":C2_27" function="internal">
        <lane id=":C2_27_0" index="0" speed="11.36" length="24.66" shape="-311.84,-0.89 -308.75,-0.45 -303.00,3.00 -299.55,8.75 -298.40,16.80"/>
    </edge>
    <edge id=":C3_0" function="internal">
        <lane id=":C3_0_0" index="0" speed="6.51" length="9.03" shape="-311.20,-283.20 -311.55,-285.65 -312.60,-287.40 -314.35,-288.45 -316.80,-288.80"/>
    </edge>
    <edge id=":C3_1" function="internal">
        <lane id=":C3_1_0" index="0" speed="13.89" length="33.60" shape="-311.20,-283.20 -311.20,-316.80"/>
        <lane id=":C3_1_1" index="1" speed="13.89" length="33.60" shape="-308.00,-283.20 -308.00,-316.80"/>
        <lane id=":C3_1_2" index="2" speed="13.89" length="33.60" shape="-304.80,-283.20 -304.80,-316.80"/>
        <lane id=":C3_1_3" index="3" speed="13.89" length="33.60" shape="-301.60,-283.20 -301.60,-316.80"/>
    </edge>
    <edge id=":C3_5" function="internal">
        <lane id=":C3_5_0" index="0" speed="11.36" length="5.01" shape="-301.60,-283.20 -300.89,-288.16"/>
    </edge>
    <edge id=":C3_24" function="internal">
        <lane id=":C3_24_0" index="0" speed="11.36" length="24.66" shape="-300.89,-288.16 -300.45,-291.25 -297.00,-297.00 -291.25,-300.45 -283.20,-301.60"/>
    </edge>
    <edge id=":C3_6" function="internal">
        <lane id=":C3_6_0" index="0" speed="6.51" length="9.03" shape="-283.20,-288.80 -285.65,-288.45 -287.40,-287.40 -288.45,-285.65 -288.80,-283.20"/>
    </edge>
    <edge id=":C3_7" function="internal">
        <lane id=":C3_7_0" index="0" speed="13.89" length="33.60" shape="-283.20,-288.80 -316.80,-288.80"/>
        <lane id=":C3_7_1" index="1" speed="13.89" length="33.60" shape="-283.20,-292.00 -316.80,-292.00"/>
        <lane id=":C3_7_2" index="2" speed="13.89" length="33.60" shape="-283.20,-295.20 -316.80,-295.20"/>
        <lane id=":C3_7_3" index="3" speed="13.89" length="33.60" shape="-283.20,-298.40 -316.80,-298.40"/>
    </edge>
    <edge id=":C3_11" function="internal">
        <lane id=":C3_11_0" index="0" speed="11.36" length="5.01" shape="-283.20,-298.40 -288.16,-299.11"/>
    </edge>
    <edge id=":C3_25" function="internal">
        <lane id=":C3_25_0" index="0" speed="11.36" length="24.66" shape="-288.16,-299.11 -291.25,-299.55 -297.00,-303.00 -300.45,-308.75 -301.60,-316.80"/>
    </edge>
    <edge id=":C3_12" function="internal">
        <lane id=":C3_12_0" index="0" speed="6.51" length="9.03" shape="-288.80,-316.80 -288.45,-314.35 -287.40,-312.60 -285.65,-311.55 -283.20,-311.20"/>
    </edge>
    <edge id=":C3_13" function="internal">
        <lane id=":C3_13_0" index="0" speed="13.89" length="33.60" shape="-288.80,-316.80 -288.80,-283.20"/>
        <lane id=":C3_13_1" index="1" speed="13.89" length="33.60" shape="-292.00,-316.80 -292.00,-283.20"/>
        <lane id=":C3_13_2" index="2" speed="13.89" length="33.60" shape="-295.20,-316.80 -295.20,-283.20"/>
        <lane id=":C3_13_3" index="3" speed="13.89" length="33.60" shape="-298.40,-316.80 -298.40,-283.20"/>
    </edge>
    <edge id=":C3_17" function="internal">
        <lane id=":C3_17_0" index="0" speed="11.36" length="5.01" shape="-298.40,-316.80 -299.11,-311.84"/>
    </edge>
    <edge id=":C3_26" function="internal">
        <lane id=":C3_26_0" index="0" speed="11.36" length="24.66" shape="-299.11,-311.84 -299.55,-308.75 -303.00,-303.00 -308.75,-299.55 -316.80,-298.40"/>
    </edge>
    <edge id=":C3_18" function="internal">
        <lane id=":C3_18_0" index="0" speed="6.51" length="9.03" shape="-316.80,-311.20 -314.35,-311.55 -312.60,-312.60 -311.55,-314.35 -311.20,-316.80"/>
    </edge>
    <edge id=":C3_19" function="internal">
        <lane id=":C3_19_0" index="0" speed="13.89" length="33.60" shape="-316.80,-311.20 -283.20,-311.20"/>
        <lane id=":C3_19_1" index="1" speed="13.89" length="33.60" shape="-316.80,-308.00 -283.20,-308.00"/>
        <lane id=":C3_19_2" index="2" speed="13.89" length="33.60" shape="-316.80,-304.80 -283.20,-304.80"/>
        <lane id=":C3_19_3" index="3" speed="13.89" length="33.60" shape="-316.80,-301.60 -283.20,-301.60"/>
    </edge>
    <edge id=":C3_23" function="internal">
        <lane id=":C3_23_0" index="0" speed="11.36" length="5.01" shape="-316.80,-301.60 -311.84,-300.89"/>
    </edge>
    <edge id=":C3_27" function="internal">
        <lane id=":C3_27_0" index="0" speed="11.36" length="24.66" shape="-311.84,-300.89 -308.75,-300.45 -303.00,-297.00 -299.55,-291.25 -298.40,-283.20"/>
    </edge>
    <edge id=":C4_0" function="internal">
        <lane id=":C4_0_0" index="0" speed="6.51" length="9.03" shape="-11.20,316.80 -11.55,314.35 -12.60,312.60 -14.35,311.55 -16.80,311.20"/>
    </edge>
    <edge id=":C4_1" function="internal">
        <lane id=":C4_1_0" index="0" speed="13.89" length="33.60" shape="-11.20,316.80 -11.20,283.20"/>
        <lane id=":C4_1_1" index="1" speed="13.89" length="33.60" shape="-8.00,316.80 -8.00,283.20"/>
        <lane id=":C4_1_2" index="2" speed="13.89" length="33.60" shape="-4.80,316.80 -4.80,283.20"/>
        <lane id=":C4_1_3" index="3" speed="13.89" length="33.60" shape="-1.60,316.80 -1.60,283.20"/>
    </edge>
    <edge id=":C4_5" function="internal">
        <lane id=":C4_5_0" index="0" speed="11.36" length="5.01" shape="-1.60,316.80 -0.89,311.84"/>
    </edge>
    <edge id=":C4_24" function="internal">
        <lane id=":C4_24_0" index="0" speed="11.36" length="24.66" shape="-0.89,311.84 -0.45,308.75 3.00,303.00 8.75,299.55 16.80,298.40"/>
    </edge>
    <edge id=":C4_6" function="internal">
        <lane id=":C4_6_0" index="0" speed="6.51" length="9.03" shape="16.80,311.20 14.35,311.55 12.60,312.60 11.55,314.35 11.20,316.80"/>
    </edge>
    <edge id=":C4_7" function="internal">
        <lane id=":C4_7_0" index="0" speed="13.89" length="33.60" shape="16.80,311.20 -16.80,311.20"/>
        <lane id=":C4_7_1" index="1" speed="13.89" length="33.60" shape="16.80,308.00 -16.80,308.00"/>
        <lane id=":C4_7_2" index="2" speed="13.89" length="33.60" shape="16.80,304.80 -16.80,304.80"/>
        <lane id=":C4_7_3" index="3" speed="13.89" length="33.60" shape="16.80,301.60 -16.80,301.60"/>
    </edge>
    <edge id=":C4_11" function="internal">
        <lane id=":C4_11_0" index="0" speed="11.36" length="5.01" shape="16.80,301.60 11.84,300.89"/>
    </edge>
    <edge id=":C4_25" function="internal">
        <lane id=":C4_25_0" index="0" speed="11.36" length="24.66" shape="11.84,300.89 8.75,300.45 3.00,297.00 -0.45,291.25 -1.60,283.20"/>
    </edge>
    <edge id=":C4_12" function="internal">
        <lane id=":C4_12_0" index="0" speed="6.51" length="9.03" shape="11.20,283.20 11.55,285.65 12.60,287.40 14.35,288.45 16.80,288.80"/>
    </edge>
    <edge id=":C4_13" function="internal">
        <lane id=":C4_13_0" index="0" speed="13.89" length="33.60" shape="11.20,283.20 11.20,316.80"/>
        <lane id=":C4_13_1" index="1" speed="13.89" length="33.60" shape="8.00,283.20 8.00,316.80"/>
        <lane id=":C4_13_2" index="2" speed="13.89" length="33.60" shape="4.80,283.20 4.80,316.80"/>
        <lane id=":C4_13_3" index="3" speed="13.89" length="33.60" shape="1.60,283.20 1.60,316.80"/>
    </edge>
    <edge id=":C4_17" function="internal">
        <lane id=":C4_17_0" index="0" speed="11.36" length="5.01" shape="1.60,283.20 0.89,288.16"/>
    </edge>
    <edge id=":C4_26" function="internal">
        <lane id=":C4_26_0" index="0" speed="11.36" length="24.66" shape="0.89,288.16 0.45,291.25 -3.00,297.00 -8.75,300.45 -16.80,301.60"/>
    </edge>
    <edge id=":C4_18" function="internal">
        <lane id=":C4_18_0" index="0" speed="6.51" length="9.03" shape="-16.80,288.80 -14.35,288.45 -12.60,287.40 -11.55,285.65 -11.20,283.20"/>
    </edge>
    <edge id=":C4_19" function="internal">
        <lane id=":C4_19_0" index="0" speed="13.89" length="33.60" shape="-16.80,288.80 16.80,288.80"/>
        <lane id=":C4_19_1" index="1" speed="13.89" length="33.60" shape="-16.80,292.00 16.80,292.00"/>
        <lane id=":C4_19_2" index="2" speed="13.89" length="33.60" shape="-16.80,295.20 16.80,295.20"/>
        <lane id=":C4_19_3" index="3" speed="13.89" length="33.60" shape="-16.80,298.40 16.80,298.40"/>
    </edge>
    <edge id=":C4_23" function="internal">
        <lane id=":C4_23_0" index="0" speed="11.36" length="5.01" shape="-16.80,298.40 -11.84,299.11"/>
    </edge>
    <edge id=":C4_27" function="internal">
        <lane id=":C4_27_0" index="0" speed="11.36" length="24.66" shape="-11.84,299.11 -8.75,299.55 -3.00,303.00 0.45,308.75 1.60,316.80"/>
    </edge>
    <edge id=":C5_0" function="internal">
        <lane id=":C5_0_0" index="0" speed="6.51" length="9.03" shape="-11.20,16.80 -11.55,14.35 -12.60,12.60 -14.35,11.55 -16.80,11.20"/>
    </edge>
    <edge id=":C5_1" function="internal">
        <lane id=":C5_1_0" index="0" speed="13.89" length="33.60" shape="-11.20,16.80 -11.20,-16.80"/>
        <lane id=":C5_1_1" index="1" speed="13.89" length="33.60" shape="-8.00,16.80 -8.00,-16.80"/>
        <lane id=":C5_1_2" index="2" speed="13.89" length="33.60" shape="-4.80,16.80 -4.80,-16.80"/>
        <lane id=":C5_1_3" index="3" speed="13.89" length="33.60" shape="-1.60,16.80 -1.60,-16.80"/>
    </edge>
    <edge id=":C5_5" function="internal">
        <lane id=":C5_5_0" index="0" speed="11.36" length="5.01" shape="-1.60,16.80 -0.89,11.84"/>
    </edge>
    <edge id=":C5_24" function="internal">
        <lane id=":C5_24_0" index="0" speed="11.36" length="24.66" shape="-0.89,11.84 -0.45,8.75 3.00,3.00 8.75,-0.45 16.80,-1.60"/>
    </edge>
    <edge id=":C5_6" function="internal">
        <lane id=":C5_6_0" index="0" speed="6.51" length="9.03" shape="16.80,11.20 14.35,11.55 12.60,12.60 11.55,14.35 11.20,16.80"/>
    </edge>
    <edge id=":C5_7" function="internal">
        <lane id=":C5_7_0" index="0" speed="13.89" length="33.60" shape="16.80,11.20 -16.80,11.20"/>
        <lane id=":C5_7_1" index="1" speed="13.89" length="33.60" shape="16.80,8.00 -16.80,8.00"/>
        <lane id=":C5_7_2" index="2" speed="13.89" length="33.60" shape="16.80,4.80 -16.80,4.80"/>
        <lane id=":C5_7_3" index="3" speed="13.89" length="33.60" shape="16.80,1.60 -16.80,1.60"/>
    </edge>
    <edge id=":C5_11" function="internal">
        <lane id=":C5_11_0" index="0" speed="11.36" length="5.01" shape="16.80,1.60 11.84,0.89"/>
    </edge>
    <edge id=":C5_25" function="internal">
        <lane id=":C5_25_0" index="0" speed="11.36" length="24.66" shape="11.84,0.89 8.75,0.45 3.00,-3.00 -0.45,-8.75 -1.60,-16.80"/>
    </edge>
    <edge id=":C5_12" function="internal">
        <lane id=":C5_12_0" index="0" speed="6.51" length="9.03" shape="11.20,-16.80 11.55,-14.35 12.60,-12.60 14.35,-11.55 16.80,-11.20"/>
    </edge>
    <edge id=":C5_13" function="internal">
        <lane id=":C5_13_0" index="0" speed="13.89" length="33.60" shape="11.20,-16.80 11.20,16.80"/>
        <lane id=":C5_13_1" index="1" speed="13.89" length="33.60" shape="8.00,-16.80 8.00,16.80"/>
        <lane id=":C5_13_2" index="2" speed="13.89" length="33.60" shape="4.80,-16.80 4.80,16.80"/>
        <lane id=":C5_13_3" index="3" speed="13.89" length="33.60" shape="1.60,-16.80 1.60,16.80"/>
    </edge>
    <edge id=":C5_17" function="internal">
        <lane id=":C5_17_0" index="0" speed="11.36" length="5.01" shape="1.60,-16.80 0.89,-11.84"/>
    </edge>
    <edge id=":C5_26" function="internal">
        <lane id=":C5_26_0" index="0" speed="11.36" length="24.66" shape="0.89,-11.84 0.45,-8.75 -3.00,-3.00 -8.75,0.45 -16.80,1.60"/>
    </edge>
    <edge id=":C5_18" function="internal">
        <lane id=":C5_18_0" index="0" speed="6.51" length="9.03" shape="-16.80,-11.20 -14.35,-11.55 -12.60,-12.60 -11.55,-14.35 -11.20,-16.80"/>
    </edge>
    <edge id=":C5_19" function="internal">
        <lane id=":C5_19_0" index="0" speed="13.89" length="33.60" shape="-16.80,-11.20 16.80,-11.20"/>
        <lane id=":C5_19_1" index="1" speed="13.89" length="33.60" shape="-16.80,-8.00 16.80,-8.00"/>
        <lane id=":C5_19_2" index="2" speed="13.89" length="33.60" shape="-16.80,-4.80 16.80,-4.80"/>
        <lane id=":C5_19_3" index="3" speed="13.89" length="33.60" shape="-16.80,-1.60 16.80,-1.60"/>
    </edge>
    <edge id=":C5_23" function="internal">
        <lane id=":C5_23_0" index="0" speed="11.36" length="5.01" shape="-16.80,-1.60 -11.84,-0.89"/>
    </edge>
    <edge id=":C5_27" function="internal">
        <lane id=":C5_27_0" index="0" speed="11.36" length="24.66" shape="-11.84,-0.89 -8.75,-0.45 -3.00,3.00 0.45,8.75 1.60,16.80"/>
    </edge>
    <edge id=":C6_0" function="internal">
        <lane id=":C6_0_0" index="0" speed="6.51" length="9.03" shape="-11.20,-283.20 -11.55,-285.65 -12.60,-287.40 -14.35,-288.45 -16.80,-288.80"/>
    </edge>
    <edge id=":C6_1" function="internal">
        <lane id=":C6_1_0" index="0" speed="13.89" length="33.60" shape="-11.20,-283.20 -11.20,-316.80"/>
        <lane id=":C6_1_1" index="1" speed="13.89" length="33.60" shape="-8.00,-283.20 -8.00,-316.80"/>
        <lane id=":C6_1_2" index="2" speed="13.89" length="33.60" shape="-4.80,-283.20 -4.80,-316.80"/>
        <lane id=":C6_1_3" index="3" speed="13.89" length="33.60" shape="-1.60,-283.20 -1.60,-316.80"/>
    </edge>
    <edge id=":C6_5" function="internal">
        <lane id=":C6_5_0" index="0" speed="11.36" length="5.01" shape="-1.60,-283.20 -0.89,-288.16"/>
    </edge>
    <edge id=":C6_24" function="internal">
        <lane id=":C6_24_0" index="0" speed="11.36" length="24.66" shape="-0.89,-288.16 -0.45,-291.25 3.00,-297.00 8.75,-300.45 16.80,-301.60"/>
    </edge>
    <edge id=":C6_6" function="internal">
        <lane id=":C6_6_0" index="0" speed="6.51" length="9.03" shape="16.80,-288.80 14.35,-288.45 12.60,-287.40 11.55,-285.65 11.20,-283.20"/>
    </edge>
    <edge id=":C6_7" function="internal">
        <lane id=":C6_7_0" index="0" speed="13.89" length="33.60" shape="16.80,-288.80 -16.80,-288.80"/>
        <lane id=":C6_7_1" index="1" speed="13.89" length="33.60" shape="16.80,-292.00 -16.80,-292.00"/>
        <lane id=":C6_7_2" index="2" speed="13.89" length="33.60" shape="16.80,-295.20 -16.80,-295.20"/>
        <lane id=":C6_7_3" index="3" speed="13.89" length="33.60" shape="16.80,-298.40 -16.80,-298.40"/>
    </edge>
    <edge id=":C6_11" function="internal">
        <lane id=":C6_11_0" index="0" speed="11.36" length="5.01" shape="16.80,-298.40 11.84,-299.11"/>
    </edge>
    <edge id=":C6_25" function="internal">
        <lane id=":C6_25_0" index="0" speed="11.36" length="24.66" shape="11.84,-299.11 8.75,-299.55 3.00,-303.00 -0.45,-308.75 -1.60,-316.80"/>
    </edge>
    <edge id=":C6_12" function="internal">
        <lane id=":C6_12_0" index="0" speed="6.51" length="9.03" shape="11.20,-316.80 11.55,-314.35 12.60,-312.60 14.35,-311.55 16.80,-311.20"/>
    </edge>
    <edge id=":C6_13" function="internal">
        <lane id=":C6_13_0" index="0" speed="13.89" length="33.60" shape="11.20,-316.80 11.20,-283.20"/>
        <lane id=":C6_13_1" index="1" speed="13.89" length="33.60" shape="8.00,-316.80 8.00,-283.20"/>
        <lane id=":C6_13_2" index="2" speed="13.89" length="33.60" shape="4.80,-316.80 4.80,-283.20"/>
        <lane id=":C6_13_3" index="3" speed="13.89" length="33.60" shape="1.60,-316.80 1.60,-283.20"/>
    </edge>
    <edge id=":C6_17" function="internal">
        <lane id=":C6_17_0" index="0" speed="11.36" length="5.01" shape="1.60,-316.80 0.89,-311.84"/>
    </edge>
    <edge id=":C6_26" function="internal">
        <lane id=":C6_26_0" index="0" speed="11.36" length="24.66" shape="0.89,-311.84 0.45,-308.75 -3.00,-303.00 -8.75,-299.55 -16.80,-298.40"/>
    </edge>
    <edge id=":C6_18" function="internal">
        <lane id=":C6_18_0" index="0" speed="6.51" length="9.03" shape="-16.80,-311.20 -14.35,-311.55 -12.60,-312.60 -11.55,-314.35 -11.20,-316.80"/>
    </edge>
    <edge id=":C6_19" function="internal">
        <lane id=":C6_19_0" index="0" speed="13.89" length="33.60" shape="-16.80,-311.20 16.80,-311.20"/>
        <lane id=":C6_19_1" index="1" speed="13.89" length="33.60" shape="-16.80,-308.00 16.80,-308.00"/>
        <lane id=":C6_19_2" index="2" speed="13.89" length="33.60" shape="-16.80,-304.80 16.80,-304.80"/>
        <lane id=":C6_19_3" index="3" speed="13.89" length="33.60" shape="-16.80,-301.60 16.80,-301.60"/>
    </edge>
    <edge id=":C6_23" function="internal">
        <lane id=":C6_23_0" index="0" speed="11.36" length="5.01" shape="-16.80,-301.60 -11.84,-300.89"/>
    </edge>
    <edge id=":C6_27" function="internal">
        <lane id=":C6_27_0" index="0" speed="11.36" length="24.66" shape="-11.84,-300.89 -8.75,-300.45 -3.00,-297.00 0.45,-291.25 1.60,-283.20"/>
    </edge>
    <edge id=":C7_0" function="internal">
        <lane id=":C7_0_0" index="0" speed="6.51" length="9.03" shape="288.80,316.80 288.45,314.35 287.40,312.60 285.65,311.55 283.20,311.20"/>
    </edge>
    <edge id=":C7_1" function="internal">
        <lane id=":C7_1_0" index="0" speed="13.89" length="33.60" shape="288.80,316.80 288.80,283.20"/>
        <lane id=":C7_1_1" index="1" speed="13.89" length="33.60" shape="292.00,316.80 292.00,283.20"/>
        <lane id=":C7_1_2" index="2" speed="13.89" length="33.60" shape="295.20,316.80 295.20,283.20"/>
        <lane id=":C7_1_3" index="3" speed="13.89" length="33.60" shape="298.40,316.80 298.40,283.20"/>
    </edge>
    <edge id=":C7_5" function="internal">
        <lane id=":C7_5_0" index="0" speed="11.36" length="5.01" shape="298.40,316.80 299.11,311.84"/>
    </edge>
    <edge id=":C7_24" function="internal">
        <lane id=":C7_24_0" index="0" speed="11.36" length="24.66" shape="299.11,311.84 299.55,308.75 303.00,303.00 308.75,299.55 316.80,298.40"/>
    </edge>
    <edge id=":C7_6" function="internal">
        <lane id=":C7_6_0" index="0" speed="6.51" length="9.03" shape="316.80,311.20 314.35,311.55 312.60,312.60 311.55,314.35 311.20,316.80"/>
    </edge>
    <edge id=":C7_7" function="internal">
        <lane id=":C7_7_0" index="0" speed="13.89" length="33.60" shape="316.80,311.20 283.20,311.20"/>
        <lane id=":C7_7_1" index="1" speed="13.89" length="33.60" shape="316.80,308.00 283.20,308.00"/>
        <lane id=":C7_7_2" index="2" speed="13.89" length="33.60" shape="316.80,304.80 283.20,304.80"/>
        <lane id=":C7_7_3" index="3" speed="13.89" length="33.60" shape="316.80,301.60 283.20,301.60"/>
    </edge>
    <edge id=":C7_11" function="internal">
        <lane id=":C7_11_0" index="0" speed="11.36" length="5.01" shape="316.80,301.60 311.84,300.89"/>
    </edge>
    <edge id=":C7_25" function="internal">
        <lane id=":C7_25_0" index="0" speed="11.36" length="24.66" shape="311.84,300.89 308.75,300.45 303.00,297.00 299.55,291.25 298.40,283.20"/>
    </edge>
    <edge id=":C7_12" function="internal">
        <lane id=":C7_12_0" index="0" speed="6.51" length="9.03" shape="311.20,283.20 311.55,285.65 312.60,287.40 314.35,288.45 316.80,288.80"/>
    </edge>
    <edge id=":C7_13" function="internal">
        <lane id=":C7_13_0" index="0" speed="13.89" length="33.60" shape="311.20,283.20 311.20,316.80"/>
        <lane id=":C7_13_1" index="1" speed="13.89" length="33.60" shape="308.00,283.20 308.00,316.80"/>
        <lane id=":C7_13_2" index="2" speed="13.89" length="33.60" shape="304.80,283.20 304.80,316.80"/>
        <lane id=":C7_13_3" index="3" speed="13.89" length="33.60" shape="301.60,283.20 301.60,316.80"/>
    </edge>
    <edge id=":C7_17" function="internal">
        <lane id=":C7_17_0" index="0" speed="11.36" length="5.01" shape="301.60,283.20 300.89,288.16"/>
    </edge>
    <edge id=":C7_26" function="internal">
        <lane id=":C7_26_0" index="0" speed="11.36" length="24.66" shape="300.89,288.16 300.45,291.25 297.00,297.00 291.25,300.45 283.20,301.60"/>
    </edge>
    <edge id=":C7_18" function="internal">
        <lane id=":C7_18_0" index="0" speed="6.51" length="9.03" shape="283.20,288.80 285.65,288.45 287.40,287.40 288.45,285.65 288.80,283.20"/>
    </edge>
    <edge id=":C7_19" function="internal">
        <lane id=":C7_19_0" index="0" speed="13.89" length="33.60" shape="283.20,288.80 316.80,288.80"/>
        <lane id=":C7_19_1" index="1" speed="13.89" length="33.60" shape="283.20,292.00 316.80,292.00"/>
        <lane id=":C7_19_2" index="2" speed="13.89" length="33.60" shape="283.20,295.20 316.80,295.20"/>
        <lane id=":C7_19_3" index="3" speed="13.89" length="33.60" shape="283.20,298.40 316.80,298.40"/>
    </edge>
    <edge id=":C7_23" function="internal">
        <lane id=":C7_23_0" index="0" speed="11.36" length="5.01" shape="283.20,298.40 288.16,299.11"/>