<?xml version="1.0" ?>
<routes>
   <vType id="civilian" accel="2.6" decel="4.5" sigma="0.5" length="5" maxSpeed="13.89" color="0,1,0"/>
   <vType id="emergency" vClass="emergency" accel="3.5" decel="5.0" sigma="0" length="7" maxSpeed="20" color="1,0,0" guiShape="emergency">
      <param key="has.bluelight.device" value="true"/>
   </vType>
   <vehicle id="civilian_1542" type="civilian" depart="1.3955117972325404">
      <route edges="S2C C2N"/>
   </vehicle>
   <vehicle id="civilian_4484" type="civilian" depart="2.1778720867327017">
      <route edges="W2C C2N"/>
   </vehicle>
   <vehicle id="civilian_7991" type="civilian" depart="2.8251795174158545">
      <route edges="S2C C2N"/>
   </vehicle>
   <vehicle id="civilian_3210" type="civilian" depart="3.3382911848908847">
      <route edges="S2C C2N"/>
   </vehicle>
   <vehicle id="civilian_8781" type="civilian" depart="4.110907316697521">
      <route edges="S2C C2W"/>
   </vehicle>
   <vehicle id="civilian_7334" type="civilian" depart="4.376647214137375">
      <route edges="S2C C2W"/>
   </vehicle>
   <vehicle id="civilian_5669" type="civilian" depart="5.0253334934126315">
      <route edges="E2C C2S"/>
   </vehicle>
   <vehicle id="civilian_9657" type="civilian" depart="5.860888867267011">
      <route edges="W2C C2N"/>
   </vehicle>
   <vehicle id="civilian_4357" type="civilian" depart="6.179124325400487">
      <route edges="W2C C2S"/>
   </vehicle>
   <vehicle id="civilian_1765" type="civilian" depart="6.303782978248762">
      <route edges="W2C C2S"/>
   </vehicle>
   <vehicle id="civilian_3530" type="civilian" depart="6.355968656301236">
      <route edges="E2C C2W"/>
   </vehicle>
   <vehicle id="civilian_8272" type="civilian" depart="7.682938743905776">
      <route edges="E2C C2S"/>
   </vehicle>
   <vehicle id="civilian_953" type="civilian" depart="8.091872304766667">
      <route edges="E2C C2S"/>
   </vehicle>
   <vehicle id="civilian_2376" type="civilian" depart="8.642353871868469">
      <route edges="E2C C2W"/>
   </vehicle>
   <vehicle id="civilian_6108" type="civilian" depart="9.607648583340023">
      <route edges="E2C C2W"/>
   </vehicle>
   <vehicle id="civilian_2399" type="civilian" depart="9.65023216754286">
      <route edges="W2C C2S"/>
   </vehicle>
   <vehicle id="civilian_3057" type="civilian" depart="10.091116704400704">
      <route edges="W2C C2E"/>
   </vehicle>
   <vehicle id="civilian_4665" type="civilian" depart="10.116153350309176">
      <route edges="S2C C2N"/>
   </vehicle>
   <vehicle id="civilian_8055" type="civilian" depart="10.939392910634549">
      <route edges="S2C C2W"/>
   </vehicle>
   <vehicle id="civilian_3697" type="civilian" depart="11.14724901660722">
      <route edges="W2C C2S"/>
   </vehicle>
   <vehicle id="civilian_8150" type="civilian" depart="11.836516540574316">
      <route edges="W2C C2N"/>
   </vehicle>
   <vehicle id="civilian_8749" type="civilian" depart="12.654069122113398">
      <route edges="S2C C2N"/>
   </vehicle>
   <vehicle id="civilian_6485" type="civilian" depart="12.861818832832661">
      <route edges="N2C C2S"/>
   </vehicle>
   <vehicle id="civilian_4174" type="civilian" depart="12.951337657709505">
      <route edges="N2C C2E"/>
   </vehicle>
   <vehicle id="civilian_110" type="civilian" depart="13.138629651041445">
      <route edges="S2C C2E"/>
   </vehicle>
   <vehicle id="civilian_498" type="civilian" depart="13.788944176676043">
      <route edges="E2C C2W"/>
   </vehicle>
   <vehicle id="civilian_7815" type="civilian" depart="15.933797744954958">
      <route edges="S2C C2E"/>
   </vehicle>
   <vehicle id="civilian_9248" type="civilian" depart="17.857379243735494">
      <route edges="S2C C2N"/>
   </vehicle>
   <vehicle id="civilian_947" type="civilian" depart="18.962638139596688">
      <route edges="N2C C2W"/>
   </vehicle>
   <vehicle id="civilian_7690" type="civilian" depart="19.972963034282465">
      <route edges="W2C C2E"/>
   </vehicle>
   <vehicle id="civilian_1595" type="civilian" depart="20.518266526285167">
      <route edges="E2C C2S"/>
   </vehicle>
   <vehicle id="civilian_9153" type="civilian" depart="21.30000330231967">
      <route edges="S2C C2E"/>
   </vehicle>
   <vehicle id="civilian_5498" type="civilian" depart="22.04648602954915">
      <route edges="S2C C2N"/>
   </vehicle>
   <vehicle id="civilian_6558" type="civilian" depart="23.477817530206657">
      <route edges="N2C C2W"/>
   </vehicle>
   <vehicle id="civilian_7729" type="civilian" depart="25.71606060572984">
      <route edges="S2C C2E"/>
   </vehicle>
   <vehicle id="civilian_2696" type="civilian" depart="26.002976776327902">
      <route edges="W2C C2N"/>
   </vehicle>
   <vehicle id="civilian_6376" type="civilian" depart="26.097417593918948">
      <route edges="N2C C2S"/>
   </vehicle>
   <vehicle id="civilian_9713" type="civilian" depart="26.108253547671634">
      <route edges="N2C C2S"/>
   </vehicle>
   <vehicle id="civilian_3674" type="civilian" depart="27.77710743146624">
      <route edges="W2C C2S"/>
   </vehicle>
   <vehicle id="civilian_8209" type="civilian" depart="28.293584776986336">
      <route edges="E2C C2W"/>
   </vehicle>
   <vehicle id="civilian_3041" type="civilian" depart="28.429563216210063">
      <route edges="S2C C2E"/>
   </vehicle>
   <vehicle id="civilian_6221" type="civilian" depart="28.72565358141932">
      <route edges="N2C C2E"/>
   </vehicle>
   <vehicle id="civilian_2918" type="civilian" depart="30.041572907173464">
      <route edges="W2C C2S"/>
   </vehicle>
   <vehicle id="civilian_4748" type="civilian" depart="32.272338998937315">
      <route edges="S2C C2W"/>
   </vehicle>
   <vehicle id="civilian_8933" type="civilian" depart="32.432717059219044">
      <route edges="W2C C2N"/>
   </vehicle>
   <vehicle id="civilian_7002" type="civilian" depart="33.20778623866509">
      <route edges="S2C C2N"/>
   </vehicle>
   <vehicle id="civilian_6439" type="civilian" depart="34.52551391096135">
      <route edges="N2C C2W"/>
   </vehicle>
   <vehicle id="civilian_14" type="civilian" depart="34.61296742361295">
      <route edges="S2C C2N"/>
   </vehicle>
   <vehicle id="civilian_3003" type="civilian" depart="35.14178868431426">
      <route edges="E2C C2N"/>
   </vehicle>
   <vehicle id="civilian_100" type="civilian" depart="35.74606180134161">
      <route edges="W2C C2N"/>
   </vehicle>
   <vehicle id="civilian_8880" type="civilian" depart="36.1021755164125">
      <route edges="W2C C2N"/>
   </vehicle>
   <vehicle id="civilian_4056" type="civilian" depart="36.80985408626025">
      <route edges="W2C C2E"/>
   </vehicle>
   <vehicle id="civilian_1646" type="civilian" depart="37.1042261591203">
      <route edges="W2C C2E"/>
   </vehicle>
   <vehicle id="civilian_2124" type="civilian" depart="37.81219089078469">
      <route edges="S2C C2N"/>
   </vehicle>
   <vehicle id="civilian_9250" type="civilian" depart="39.677276004725215">
      <route edges="E2C C2W"/>
   </vehicle>
   <vehicle id="civilian_1835" type="civilian" depart="40.21691880015723">
      <route edges="N2C C2W"/>
   </vehicle>
   <vehicle id="civilian_1893" type="civilian" depart="40.454515883470776">
      <route edges="S2C C2E"/>
   </vehicle>
   <vehicle id="civilian_2989" type="civilian" depart="40.71475080921054">
      <route edges="S2C C2N"/>
   </vehicle>
   <vehicle id="civilian_3436" type="civilian" depart="41.72022874924348">
      <route edges="E2C C2W"/>
   </vehicle>
   <vehicle id="civilian_6259" type="civilian" depart="41.7887517950426">
      <route edges="W2C C2N"/>
   </vehicle>
   <vehicle id="civilian_2837" type="civilian" depart="42.55547685628267">
      <route edges="E2C C2N"/>
   </vehicle>
   <vehicle id="civilian_7835" type="civilian" depart="42.86154673352307">
      <route edges="N2C C2E"/>
   </vehicle>
   <vehicle id="civilian_363" type="civilian" depart="43.53999332415759">
      <route edges="S2C C2W"/>
   </vehicle>
   <vehicle id="civilian_1243" type="civilian" depart="44.24745020892704">
      <route edges="S2C C2N"/>
   </vehicle>
   <vehicle id="civilian_3254" type="civilian" depart="44.75623088030272">
      <route edges="W2C C2E"/>
   </vehicle>
   <vehicle id="civilian_6085" type="civilian" depart="44.78097988515142">
      <route edges="S2C C2W"/>
   </vehicle>
   <vehicle id="civilian_5196" type="civilian" depart="44.8099047313784">
      <route edges="S2C C2W"/>
   </vehicle>
   <vehicle id="civilian_3127" type="civilian" depart="46.8295216324119">
      <route edges="S2C C2N"/>
   </vehicle>
   <vehicle id="civilian_4179" type="civilian" depart="48.18169574004747">
      <route edges="N2C C2E"/>
   </vehicle>
   <vehicle id="civilian_9277" type="civilian" depart="49.34364071007131">
      <route edges="E2C C2N"/>
   </vehicle>
   <vehicle id="civilian_7431" type="civilian" depart="50.18069519218642">
      <route edges="W2C C2S"/>
   </vehicle>
   <vehicle id="civilian_1228" type="civilian" depart="50.27548577870089">
      <route edges="W2C C2E"/>
   </vehicle>
   <vehicle id="civilian_5933" type="civilian" depart="51.16474010607428">
      <route edges="N2C C2S"/>
   </vehicle>
   <vehicle id="civilian_4208" type="civilian" depart="51.862316718713686">
      <route edges="N2C C2W"/>
   </vehicle>
   <vehicle id="civilian_9324" type="civilian" depart="52.03433848112109">
      <route edges="N2C C2S"/>
   </vehicle>
   <vehicle id="civilian_3314" type="civilian" depart="55.074169091963924">
      <route edges="N2C C2W"/>
   </vehicle>
   <vehicle id="civilian_1172" type="civilian" depart="55.18782670339917">
      <route edges="W2C C2N"/>
   </vehicle>
   <vehicle id="civilian_1113" type="civilian" depart="55.653358911175665">
      <route edges="S2C C2N"/>
   </vehicle>
   <vehicle id="civilian_226" type="civilian" depart="57.45820792755669">
      <route edges="N2C C2E"/>
   </vehicle>
   <vehicle id="civilian_8143" type="civilian" depart="58.038765730231745">
      <route edges="N2C C2W"/>
   </vehicle>
   <vehicle id="civilian_5380" type="civilian" depart="58.89315212886244">
      <route edges="N2C C2E"/>
   </vehicle>
   <vehicle id="civilian_1840" type="civilian" depart="59.129669407791674">
      <route edges="S2C C2N"/>
   </vehicle>
   <vehicle id="civilian_7504" type="civilian" depart="59.87888857377275">
      <route edges="N2C C2S"/>
   </vehicle>
   <vehicle id="civilian_7944" type="civilian" depart="60.60885172869854">
      <route edges="E2C C2N"/>
   </vehicle>
   <vehicle id="civilian_7532" type="civilian" depart="61.70967907473903">
      <route edges="W2C C2N"/>
   </vehicle>
   <vehicle id="civilian_5169" type="civilian" depart="61.86968787684233">
      <route edges="E2C C2N"/>
   </vehicle>
   <vehicle id="civilian_5584" type="civilian" depart="62.49480809986876">
      <route edges="S2C C2N"/>
   </vehicle>
   <vehicle id="civilian_3352" type="civilian" depart="63.790088072087855">
      <route edges="S2C C2W"/>
   </vehicle>
   <vehicle id="civilian_3605" type="civilian" depart="64.95445559431614">
      <route edges="N2C C2E"/>
   </vehicle>
   <vehicle id="civilian_4078" type="civilian" depart="65.59424351743547">
      <route edges="N2C C2E"/>
   </vehicle>
   <vehicle id="civilian_6752" type="civilian" depart="65.97271061590905">
      <route edges="N2C C2E"/>
   </vehicle>
   <vehicle id="civilian_6291" type="civilian" depart="66.46827160416055">
      <route edges="N2C C2W"/>
   </vehicle>
   <vehicle id="civilian_5981" type="civilian" depart="68.00723265579691">
      <route edges="E2C C2N"/>
   </vehicle>
   <vehicle id="civilian_7474" type="civilian" depart="68.01733707340034">
      <route edges="W2C C2N"/>
   </vehicle>
   <vehicle id="civilian_3424" type="civilian" depart="68.29585252454314">
      <route edges="S2C C2W"/>
   </vehicle>
   <vehicle id="civilian_6270" type="civilian" depart="68.85639543806575">
      <route edges="N2C C2E"/>
   </vehicle>
   <vehicle id="civilian_7211" type="civilian" depart="68.92737906260562">
      <route edges="E2C C2W"/>
   </vehicle>
   <vehicle id="civilian_503" type="civilian" depart="68.94294444918768">
      <route edges="N2C C2S"/>
   </vehicle>
   <vehicle id="civilian_1248" type="civilian" depart="69.17454278870352">
      <route edges="S2C C2W"/>
   </vehicle>
   <vehicle id="civilian_6006" type="civilian" depart="69.65214199872864">
      <route edges="W2C C2E"/>
   </vehicle>
   <vehicle id="civilian_8842" type="civilian" depart="71.49997563041603">
      <route edges="E2C C2N"/>
   </vehicle>
   <vehicle id="civilian_4508" type="civilian" depart="71.90321026687094">
      <route edges="N2C C2S"/>
   </vehicle>
   <vehicle id="civilian_2793" type="civilian" depart="73.12367240542876">
      <route edges="S2C C2E"/>
   </vehicle>
   <vehicle id="civilian_3729" type="civilian" depart="73.95469889973975">
      <route edges="N2C C2S"/>
   </vehicle>
   <vehicle id="civilian_5431" type="civilian" depart="74.3439664897137">
      <route edges="S2C C2E"/>
   </vehicle>
   <vehicle id="civilian_1971" type="civilian" depart="74.50095236814161">
      <route edges="N2C C2E"/>
   </vehicle>
   <vehicle id="civilian_4836" type="civilian" depart="74.78458034330053">
      <route edges="S2C C2N"/>
   </vehicle>
   <vehicle id="civilian_385" type="civilian" depart="76.35500898635827">
      <route edges="S2C C2E"/>
   </vehicle>
   <vehicle id="civilian_7556" type="civilian" depart="76.72592189646501">
      <route edges="N2C C2W"/>
   </vehicle>
   <vehicle id="civilian_7163" type="civilian" depart="76.95097040577225">
      <route edges="S2C C2W"/>
   </vehicle>
   <vehicle id="civilian_9622" type="civilian" depart="77.88651239718334">
      <route edges="S2C C2E"/>
   </vehicle>
   <vehicle id="civilian_6786" type="civilian" depart="78.27060104023076">
      <route edges="N2C C2W"/>
   </vehicle>
   <vehicle id="civilian_989" type="civilian" depart="78.69927830619127">
      <route edges="E2C C2S"/>
   </vehicle>
   <vehicle id="civilian_250" type="civilian" depart="78.74804817616976">
      <route edges="S2C C2W"/>
   </vehicle>
   <vehicle id="civilian_5717" type="civilian" depart="78.87539309340497">
      <route edges="N2C C2E"/>
   </vehicle>
   <vehicle id="civilian_112" type="civilian" depart="81.42239702861983">
      <route edges="E2C C2N"/>
   </vehicle>
   <vehicle id="civilian_9286" type="civilian" depart="81.62661133173721">
      <route edges="N2C C2E"/>
   </vehicle>
   <vehicle id="civilian_6053" type="civilian" depart="82.71056303483783">
      <route edges="W2C C2S"/>
   </vehicle>
   <vehicle id="civilian_2181" type="civilian" depart="82.98606032565736">
      <route edges="W2C C2S"/>
   </vehicle>
   <vehicle id="civilian_5812" type="civilian" depart="82.99944327412038">
      <route edges="S2C C2W"/>
   </vehicle>
   <vehicle id="civilian_5203" type="civilian" depart="83.02097190700559">
      <route edges="N2C C2S"/>
   </vehicle>
   <vehicle id="civilian_9702" type="civilian" depart="83.04618907796657">
      <route edges="S2C C2N"/>
   </vehicle>
   <vehicle id="civilian_7386" type="civilian" depart="83.89024390063851">
      <route edges="E2C C2W"/>
   </vehicle>
   <vehicle id="civilian_6450" type="civilian" depart="84.22147337340347">
      <route edges="E2C C2N"/>
   </vehicle>
   <vehicle id="civilian_2232" type="civilian" depart="84.48646923450357">
      <route edges="E2C C2S"/>
   </vehicle>
   <vehicle id="civilian_1162" type="civilian" depart="87.51672044290792">
      <route edges="N2C C2W"/>
   </vehicle>
   <vehicle id="civilian_2612" type="civilian" depart="88.11494627569152">
      <route edges="W2C C2N"/>
   </vehicle>
   <vehicle id="civilian_4140" type="civilian" depart="88.47575786208397">
      <route edges="W2C C2S"/>
   </vehicle>
   <vehicle id="civilian_5344" type="civilian" depart="88.93991589267402">
      <route edges="E2C C2N"/>
   </vehicle>
   <vehicle id="civilian_7619" type="civilian" depart="90.12579926091595">
      <route edges="E2C C2N"/>
   </vehicle>
   <vehicle id="civilian_3826" type="civilian" depart="90.17857702860815">
      <route edges="E2C C2W"/>
   </vehicle>
   <vehicle id="civilian_6246" type="civilian" depart="90.46016604139294">
      <route edges="S2C C2W"/>
   </vehicle>
   <vehicle id="civilian_5813" type="civilian" depart="90.62386091872608">
      <route edges="E2C C2S"/>
   </vehicle>
   <vehicle id="civilian_4655" type="civilian" depart="91.60582882558437">
      <route edges="E2C C2W"/>
   </vehicle>
   <vehicle id="civilian_5426" type="civilian" depart="92.06636303267395">
      <route edges="E2C C2N"/>
   </vehicle>
   <vehicle id="civilian_1414" type="civilian" depart="92.51553232872487">
      <route edges="N2C C2E"/>
   </vehicle>
   <vehicle id="civilian_9305" type="civilian" depart="92.640297266255">
      <route edges="E2C C2S"/>
   </vehicle>
   <vehicle id="civilian_6677" type="civilian" depart="92.99666997695964">
      <route edges="N2C C2W"/>
   </vehicle>
   <vehicle id="civilian_8984" type="civilian" depart="93.54112044802685">
      <route edges="E2C C2N"/>
   </vehicle>
   <vehicle id="civilian_7366" type="civilian" depart="93.54605371223998">
      <route edges="N2C C2W"/>
   </vehicle>
   <vehicle id="civilian_6272" type="civilian" depart="93.95505232216941">
      <route edges="E2C C2N"/>
   </vehicle>
   <vehicle id="civilian_79" type="civilian" depart="94.17160414739394">
      <route edges="E2C C2N"/>
   </vehicle>
   <vehicle id="civilian_6857" type="civilian" depart="96.10053940548076">
      <route edges="E2C C2N"/>
   </vehicle>
   <vehicle id="civilian_534" type="civilian" depart="97.08069728408857">
      <route edges="E2C C2S"/>
   </vehicle>
   <vehicle id="civilian_1320" type="civilian" depart="97.48373400962222">
      <route edges="S2C C2E"/>
   </vehicle>
   <vehicle id="civilian_4547" type="civilian" depart="99.03056284507502">
      <route edges="N2C C2E"/>
   </vehicle>
   <vehicle id="civilian_3238" type="civilian" depart="99.71714466851216">
      <route edges="W2C C2N"/>
   </vehicle>
   <vehicle id="emergency_1852" type="emergency" depart="102.29296970018834">
      <route edges="N2C C2S"/>
   </vehicle>
   <vehicle id="civilian_9747" type="civilian" depart="102.8700383654293">
      <route edges="E2C C2N"/>
   </vehicle>
   <vehicle id="civilian_946" type="civilian" depart="104.16362322548416">
      <route edges="E2C C2S"/>
   </vehicle>
   <vehicle id="civilian_3907" type="civilian" depart="104.17295423684294">
      <route edges="E2C C2W"/>
   </vehicle>
   <vehicle id="civilian_4448" type="civilian" depart="105.19420171066668">
      <route edges="W2C C2E"/>
   </vehicle>
   <vehicle id="emergency_851" type="emergency" depart="105.52282111160874">
      <route edges="W2C C2S"/>
   </vehicle>
   <vehicle id="civilian_4897" type="civilian" depart="106.34098958965303">
      <route edges="E2C C2N"/>
   </vehicle>
   <vehicle id="emergency_1553" type="emergency" depart="106.35359034525185">
      <route edges="W2C C2S"/>
   </vehicle>
   <vehicle id="civilian_1579" type="civilian" depart="106.50754434830034">
      <route edges="E2C C2S"/>
   </vehicle>
   <vehicle id="civilian_4518" type="civilian" depart="106.69654411264729">
      <route edges="W2C C2S"/>
   </vehicle>
   <vehicle id="emergency_955" type="emergency" depart="106.91100422149282">
      <route edges="E2C C2W"/>
   </vehicle>
   <vehicle id="emergency_1478" type="emergency" depart="108.26068198830433">
      <route edges="E2C C2S"/>
   </vehicle>
   <vehicle id="civilian_5028" type="civilian" depart="108.78101199159333">
      <route edges="N2C C2W"/>
   </vehicle>
   <vehicle id="civilian_9496" type="civilian" depart="108.78441111704885">
      <route edges="N2C C2E"/>
   </vehicle>
   <vehicle id="civilian_2639" type="civilian" depart="109.31947677206057">
      <route edges="E2C C2W"/>
   </vehicle>
   <vehicle id="civilian_9881" type="civilian" depart="109.57742077283541">
      <route edges="S2C C2E"/>
   </vehicle>
   <vehicle id="civilian_4050" type="civilian" depart="110.78170635286133">
      <route edges="E2C C2S"/>
   </vehicle>
   <vehicle id="civilian_2532" type="civilian" depart="110.99860206470584">
      <route edges="W2C C2E"/>
   </vehicle>
   <vehicle id="civilian_8112" type="civilian" depart="112.6707842294393">
      <route edges="E2C C2S"/>
   </vehicle>
   <vehicle id="civilian_8079" type="civilian" depart="113.08931829270045">
      <route edges="E2C C2S"/>
   </vehicle>
   <vehicle id="civilian_7551" type="civilian" depart="114.45624220293294">
      <route edges="N2C C2W"/>
   </vehicle>
   <vehicle id="civilian_5206" type="civilian" depart="114.66901878483951">
      <route edges="S2C C2N"/>
   </vehicle>
   <vehicle id="civilian_197" type="civilian" depart="115.8787808521315">
      <route edges="N2C C2E"/>
   </vehicle>
   <vehicle id="civilian_8499" type="civilian" depart="116.44667857847688">
      <route edges="W2C C2E"/>
   </vehicle>
   <vehicle id="civilian_6378" type="civilian" depart="116.59606710674781">
      <route edges="E2C C2N"/>
   </vehicle>
   <vehicle id="civilian_776" type="civilian" depart="117.67641344788666">
      <route edges="N2C C2S"/>
   </vehicle>
   <vehicle id="civilian_722" type="civilian" depart="118.52370090338722">
      <route edges="E2C C2W"/>
   </vehicle>
   <vehicle id="civilian_8991" type="civilian" depart="120.00032930802922">
      <route edges="N2C C2S"/>
   </vehicle>
   <vehicle id="civilian_5271" type="civilian" depart="121.79127502203846">
      <route edges="E2C C2W"/>
   </vehicle>
   <vehicle id="civilian_7875" type="civilian" depart="122.03749759100653">
      <route edges="W2C C2E"/>
   </vehicle>
   <vehicle id="emergency_1975" type="emergency" depart="124.13349755500526">
      <route edges="N2C C2W"/>
   </vehicle>
   <vehicle id="civilian_3809" type="civilian" depart="124.27969558515511">
      <route edges="W2C C2E"/>
   </vehicle>
   <vehicle id="civilian_3103" type="civilian" depart="124.84584329781771">
      <route edges="S2C C2E"/>
   </vehicle>
   <vehicle id="civilian_1017" type="civilian" depart="126.11403798732735">
      <route edges="S2C C2W"/>
   </vehicle>
   <vehicle id="civilian_2438" type="civilian" depart="126.22076101038546">
      <route edges="S2C C2E"/>
   </vehicle>
   <vehicle id="emergency_947" type="emergency" depart="126.26815803040661">
      <route edges="S2C C2E"/>
   </vehicle>
   <vehicle id="civilian_8617" type="civilian" depart="127.69396295555052">
      <route edges="S2C C2W"/>
   </vehicle>
   <vehicle id="civilian_5515" type="civilian" depart="128.10846649842543">
      <route edges="E2C C2W"/>
   </vehicle>
   <vehicle id="civilian_3817" type="civilian" depart="128.4946906959573">
      <route edges="W2C C2S"/>
   </vehicle>
   <vehicle id="civilian_779" type="civilian" depart="129.84047699932174">
      <route edges="E2C C2N"/>
   </vehicle>
   <vehicle id="civilian_9773" type="civilian" depart="129.97403518605984">
      <route edges="N2C C2E"/>
   </vehicle>
   <vehicle id="emergency_702" type="emergency" depart="130.6941672433999">
      <route edges="N2C C2W"/>
   </vehicle>
   <vehicle id="emergency_1334" type="emergency" depart="130.97680819616266">
      <route edges="W2C C2E"/>
   </vehicle>
   <vehicle id="civilian_7555" type="civilian" depart="132.2339113840748">
      <route edges="S2C C2N"/>
   </vehicle>
   <vehicle id="emergency_1219" type="emergency" depart="132.70508274170757">
      <route edges="W2C C2E"/>
   </vehicle>
   <vehicle id="civilian_4537" type="civilian" depart="132.98283122267938">
      <route edges="W2C C2E"/>
   </vehicle>
   <vehicle id="civilian_3658" type="civilian" depart="133.06670614941459">
      <route edges="S2C C2W"/>
   </vehicle>
   <vehicle id="emergency_100" type="emergency" depart="134.4205153209828">
      <route edges="N2C C2W"/>
   </vehicle>
   <vehicle id="civilian_860" type="civilian" depart="136.89611338250413">
      <route edges="W2C C2N"/>
   </vehicle>
   <vehicle id="civilian_5541" type="civilian" depart="137.04444045151297">
      <route edges="S2C C2N"/>
   </vehicle>
   <vehicle id="civilian_8206" type="civilian" depart="137.52669150985105">
      <route edges="N2C C2E"/>
   </vehicle>
   <vehicle id="civilian_311" type="civilian" depart="138.5615532787093">
      <route edges="E2C C2W"/>
   </vehicle>
   <vehicle id="civilian_7610" type="civilian" depart="138.7376590237368">
      <route edges="W2C C2S"/>
   </vehicle>
   <vehicle id="civilian_2018" type="civilian" depart="139.11016148688793">
      <route edges="E2C C2W"/>
   </vehicle>
   <vehicle id="civilian_2961" type="civilian" depart="139.42577755719157">
      <route edges="W2C C2E"/>
   </vehicle>
   <vehicle id="civilian_7143" type="civilian" depart="139.7842743591247">
      <route edges="N2C C2W"/>
   </vehicle>
   <vehicle id="civilian_5592" type="civilian" depart="140.83954710053268">
      <route edges="S2C C2E"/>
   </vehicle>
   <vehicle id="emergency_871" type="emergency" depart="141.06297735341093">
      <route edges="S2C C2N"/>
   </vehicle>
   <vehicle id="civilian_5293" type="civilian" depart="141.65214423828286">
      <route edges="N2C C2W"/>
   </vehicle>
   <vehicle id="civilian_5938" type="civilian" depart="143.16214779617954">
      <route edges="W2C C2N"/>
   </vehicle>
   <vehicle id="civilian_2535" type="civilian" depart="143.28729439006977">
      <route edges="W2C C2E"/>
   </vehicle>
   <vehicle id="civilian_6448" type="civilian" depart="143.29438272276258">
      <route edges="N2C C2S"/>
   </vehicle>
   <vehicle id="civilian_8464" type="civilian" depart="143.8313914033164">
      <route edges="E2C C2N"/>
   </vehicle>
   <vehicle id="civilian_6240" type="civilian" depart="145.22270448819273">
      <route edges="S2C C2E"/>
   </vehicle>
   <vehicle id="civilian_9893" type="civilian" depart="147.21998110877666">
      <route edges="W2C C2S"/>
   </vehicle>
   <vehicle id="civilian_7454" type="civilian" depart="147.2582956598725">
      <route edges="S2C C2E"/>
   </vehicle>
   <vehicle id="civilian_8642" type="civilian" depart="147.9303741647195">
      <route edges="E2C C2N"/>
   </vehicle>
   <vehicle id="civilian_7761" type="civilian" depart="148.03770247904833">
      <route edges="N2C C2S"/>
   </vehicle>
   <vehicle id="civilian_6951" type="civilian" depart="148.63635238852328">
      <route edges="N2C C2E"/>
   </vehicle>
   <vehicle id="civilian_835" type="civilian" depart="150.06712159381613">
      <route edges="N2C C2E"/>
   </vehicle>
   <vehicle id="civilian_3595" type="civilian" depart="150.07006554661365">
      <route edges="E2C C2S"/>
   </vehicle>
   <vehicle id="civilian_8231" type="civilian" depart="150.2304865728214">
      <route edges="N2C C2S"/>
   </vehicle>
   <vehicle id="emergency_814" type="emergency" depart="150.28048442671997">
      <route edges="E2C C2N"/>
   </vehicle>
   <vehicle id="civilian_9276" type="civilian" depart="150.41543305597688">
      <route edges="N2C C2E"/>
   </vehicle>
   <vehicle id="civilian_8940" type="civilian" depart="150.7690953423677">
      <route edges="W2C C2E"/>
   </vehicle>
   <vehicle id="civilian_5953" type="civilian" depart="151.53435879459715">
      <route edges="N2C C2E"/>
   </vehicle>
   <vehicle id="civilian_3350" type="civilian" depart="151.77829752678474">
      <route edges="E2C C2N"/>
   </vehicle>
   <vehicle id="civilian_6178" type="civilian" depart="153.07747399618714">
      <route edges="E2C C2S"/>
   </vehicle>
   <vehicle id="civilian_6344" type="civilian" depart="153.5997216717978">
      <route edges="E2C C2N"/>
   </vehicle>
   <vehicle id="civilian_4563" type="civilian" depart="153.72408904324786">
      <route edges="N2C C2S"/>
   </vehicle>
   <vehicle id="civilian_5383" type="civilian" depart="153.79275323495312">
      <route edges="W2C C2E"/>
   </vehicle>
   <vehicle id="civilian_2991" type="civilian" depart="154.5339500456805">
      <route edges="S2C C2W"/>
   </vehicle>
   <vehicle id="emergency_1335" type="emergency" depart="154.67190718339432">
      <route edges="N2C C2W"/>
   </vehicle>
   <vehicle id="civilian_3891" type="civilian" depart="155.92418356358823">
      <route edges="E2C C2S"/>
   </vehicle>
   <vehicle id="emergency_606" type="emergency" depart="156.18245189227022">
      <route edges="S2C C2W"/>
   </vehicle>
   <vehicle id="civilian_8552" type="civilian" depart="156.73325905290474">
      <route edges="S2C C2W"/>
   </vehicle>
   <vehicle id="civilian_6443" type="civilian" depart="157.84900158909778">
      <route edges="W2C C2S"/>
   </vehicle>
   <vehicle id="civilian_3860" type="civilian" depart="159.0819240438856">
      <route edges="W2C C2N"/>
   </vehicle>
   <vehicle id="civilian_3433" type="civilian" depart="159.5316391793382">
      <route edges="S2C C2E"/>
   </vehicle>
   <vehicle id="civilian_9142" type="civilian" depart="159.93894997115757">
      <route edges="N2C C2W"/>
   </vehicle>
   <vehicle id="civilian_3236" type="civilian" depart="160.0536765089906">
      <route edges="S2C C2W"/>
   </vehicle>
   <vehicle id="civilian_7910" type="civilian" depart="160.66354776454511">
      <route edges="W2C C2S"/>
   </vehicle>
   <vehicle id="emergency_1879" type="emergency" depart="161.5430883172645">
      <route edges="E2C C2W"/>
   </vehicle>
   <vehicle id="civilian_3488" type="civilian" depart="161.97111639417346">
      <route edges="E2C C2S"/>
   </vehicle>
   <vehicle id="emergency_1811" type="emergency" depart="162.2113333882054">
      <route edges="S2C C2W"/>
   </vehicle>
   <vehicle id="civilian_5516" type="civilian" depart="162.78832043376843">
      <route edges="S2C C2E"/>
   </vehicle>
   <vehicle id="emergency_492" type="emergency" depart="164.0563616256735">
      <route edges="N2C C2E"/>
   </vehicle>
   <vehicle id="civilian_3987" type="civilian" depart="165.01229100106593">
      <route edges="W2C C2S"/>
   </vehicle>
   <vehicle id="civilian_9383" type="civilian" depart="166.30677411718074">
      <route edges="S2C C2E"/>
   </vehicle>