<?xml version="1.0" encoding="UTF-8"?>

<!-- generated on 2025-11-20 15:47:40 by Eclipse SUMO netedit Version 1.24.0
<neteditConfiguration xmlns:xsi="http://www.w3.org/2001/XMLSchema-instance" xsi:noNamespaceSchemaLocation="http://sumo.dlr.de/xsd/neteditConfiguration.xsd">

    <input>
        <sumo-net-file value="C:\Users\shubh\Documents\T40-RL-Based-Smart-Traffic-Light-System-for-Emergency-Response\data\networks\intersection.net.xml"/>
    </input>

    <output>
        <output-file value="C:\Users\shubh\Documents\T40-RL-Based-Smart-Traffic-Light-System-for-Emergency-Response\data\networks\intersection.net.xml"/>
    </output>

    <processing>
        <offset.disable-normalization value="true"/>
    </processing>

    <junctions>
        <no-turnarounds value="true"/>
    </junctions>

    <netedit>
        <new-network value="false"/>
    </netedit>

</neteditConfiguration>
-->

<net version="1.20" junctionCornerDetail="5" limitTurnSpeed="5.50" xmlns:xsi="http://www.w3.org/2001/XMLSchema-instance" xsi:noNamespaceSchemaLocation="http://sumo.dlr.de/xsd/net_file.xsd">

    <location netOffset="0.00,0.00" convBoundary="-400.00,-400.00,400.00,400.00" origBoundary="10000000000.00,10000000000.00,-10000000000.00,-10000000000.00" projParameter="!"/>

    <edge id=":C1_0" function="internal">
        <lane id=":C1_0_0" index="0" speed="6.51" length="9.03" shape="-211.20,216.80 -211.55,214.35 -212.60,212.60 -214.35,211.55 -216.80,211.20"/>
    </edge>
    <edge id=":C1_1" function="internal">
        <lane id=":C1_1_0" index="0" speed="13.89" length="33.60" shape="-211.20,216.80 -211.20,183.20"/>
        <lane id=":C1_1_1" index="1" speed="13.89" length="33.60" shape="-208.00,216.80 -208.00,183.20"/>
        <lane id=":C1_1_2" index="2" speed="13.89" length="33.60" shape="-204.80,216.80 -204.80,183.20"/>
        <lane id=":C1_1_3" index="3" speed="13.89" length="33.60" shape="-201.60,216.80 -201.60,183.20"/>
    </edge>
    <edge id=":C1_5" function="internal">
        <lane id=":C1_5_0" index="0" speed="11.36" length="5.01" shape="-201.60,216.80 -200.89,211.84"/>
    </edge>
    <edge id=":C1_24" function="internal">
        <lane id=":C1_24_0" index="0" speed="11.36" length="24.66" shape="-200.89,211.84 -200.45,208.75 -197.00,203.00 -191.25,199.55 -183.20,198.40"/>
    </edge>
    <edge id=":C1_6" function="internal">
        <lane id=":C1_6_0" index="0" speed="6.51" length="9.03" shape="-183.20,211.20 -185.65,211.55 -187.40,212.60 -188.45,214.35 -188.80,216.80"/>
    </edge>
    <edge id=":C1_7" function="internal">
        <lane id=":C1_7_0" index="0" speed="13.89" length="33.60" shape="-183.20,211.20 -216.80,211.20"/>
        <lane id=":C1_7_1" index="1" speed="13.89" length="33.60" shape="-183.20,208.00 -216.80,208.00"/>
        <lane id=":C1_7_2" index="2" speed="13.89" length="33.60" shape="-183.20,204.80 -216.80,204.80"/>
        <lane id=":C1_7_3" index="3" speed="13.89" length="33.60" shape="-183.20,201.60 -216.80,201.60"/>
    </edge>
    <edge id=":C1_11" function="internal">
        <lane id=":C1_11_0" index="0" speed="11.36" length="5.01" shape="-183.20,201.60 -188.16,200.89"/>
    </edge>
    <edge id=":C1_25" function="internal">
        <lane id=":C1_25_0" index="0" speed="11.36" length="24.66" shape="-188.16,200.89 -191.25,200.45 -197.00,197.00 -200.45,191.25 -201.60,183.20"/>
    </edge>
    <edge id=":C1_12" function="internal">
        <lane id=":C1_12_0" index="0" speed="6.51" length="9.03" shape="-188.80,183.20 -188.45,185.65 -187.40,187.40 -185.65,188.45 -183.20,188.80"/>
    </edge>
    <edge id=":C1_13" function="internal">
        <lane id=":C1_13_0" index="0" speed="13.89" length="33.60" shape="-188.80,183.20 -188.80,216.80"/>
        <lane id=":C1_13_1" index="1" speed="13.89" length="33.60" shape="-192.00,183.20 -192.00,216.80"/>
        <lane id=":C1_13_2" index="2" speed="13.89" length="33.60" shape="-195.20,183.20 -195.20,216.80"/>
        <lane id=":C1_13_3" index="3" speed="13.89" length="33.60" shape="-198.40,183.20 -198.40,216.80"/>
    </edge>
    <edge id=":C1_17" function="internal">
        <lane id=":C1_17_0" index="0" speed="11.36" length="5.01" shape="-198.40,183.20 -199.11,188.16"/>
    </edge>
    <edge id=":C1_26" function="internal">
        <lane id=":C1_26_0" index="0" speed="11.36" length="24.66" shape="-199.11,188.16 -199.55,191.25 -203.00,197.00 -208.75,200.45 -216.80,201.60"/>
    </edge>
    <edge id=":C1_18" function="internal">
        <lane id=":C1_18_0" index="0" speed="6.51" length="9.03" shape="-216.80,188.80 -214.35,188.45 -212.60,187.40 -211.55,185.65 -211.20,183.20"/>
    </edge>
    <edge id=":C1_19" function="internal">
        <lane id=":C1_19_0" index="0" speed="13.89" length="33.60" shape="-216.80,188.80 -183.20,188.80"/>
        <lane id=":C1_19_1" index="1" speed="13.89" length="33.60" shape="-216.80,192.00 -183.20,192.00"/>
        <lane id=":C1_19_2" index="2" speed="13.89" length="33.60" shape="-216.80,195.20 -183.20,195.20"/>
        <lane id=":C1_19_3" index="3" speed="13.89" length="33.60" shape="-216.80,198.40 -183.20,198.40"/>
    </edge>
    <edge id=":C1_23" function="internal">
        <lane id=":C1_23_0" index="0" speed="11.36" length="5.01" shape="-216.80,198.40 -211.84,199.11"/>
    </edge>
    <edge id=":C1_27" function="internal">
        <lane id=":C1_27_0" index="0" speed="11.36" length="24.66" shape="-211.84,199.11 -208.75,199.55 -203.00,203.00 -199.55,208.75 -198.40,216.80"/>
    </edge>
    <edge id=":C2_0" function="internal">
        <lane id=":C2_0_0" index="0" speed="6.51" length="9.03" shape="-211.20,-183.20 -211.55,-185.65 -212.60,-187.40 -214.35,-188.45 -216.80,-188.80"/>
    </edge>
    <edge id=":C2_1" function="internal">
        <lane id=":C2_1_0" index="0" speed="13.89" length="33.60" shape="-211.20,-183.20 -211.20,-216.80"/>
        <lane id=":C2_1_1" index="1" speed="13.89" length="33.60" shape="-208.00,-183.20 -208.00,-216.80"/>
        <lane id=":C2_1_2" index="2" speed="13.89" length="33.60" shape="-204.80,-183.20 -204.80,-216.80"/>
        <lane id=":C2_1_3" index="3" speed="13.89" length="33.60" shape="-201.60,-183.20 -201.60,-216.80"/>
    </edge>
    <edge id=":C2_5" function="internal">
        <lane id=":C2_5_0" index="0" speed="11.36" length="5.01" shape="-201.60,-183.20 -200.89,-188.16"/>
    </edge>
    <edge id=":C2_24" function="internal">
        <lane id=":C2_24_0" index="0" speed="11.36" length="24.66" shape="-200.89,-188.16 -200.45,-191.25 -197.00,-197.00 -191.25,-200.45 -183.20,-201.60"/>
    </edge>
    <edge id=":C2_6" function="internal">
        <lane id=":C2_6_0" index="0" speed="6.51" length="9.03" shape="-183.20,-188.80 -185.65,-188.45 -187.40,-187.40 -188.45,-185.65 -188.80,-183.20"/>
    </edge>
    <edge id=":C2_7" function="internal">
        <lane id=":C2_7_0" index="0" speed="13.89" length="33.60" shape="-183.20,-188.80 -216.80,-188.80"/>
        <lane id=":C2_7_1" index="1" speed="13.89" length="33.60" shape="-183.20,-192.00 -216.80,-192.00"/>
        <lane id=":C2_7_2" index="2" speed="13.89" length="33.60" shape="-183.20,-195.20 -216.80,-195.20"/>
        <lane id=":C2_7_3" index="3" speed="13.89" length="33.60" shape="-183.20,-198.40 -216.80,-198.40"/>
    </edge>
    <edge id=":C2_11" function="internal">
        <lane id=":C2_11_0" index="0" speed="11.36" length="5.01" shape="-183.20,-198.40 -188.16,-199.11"/>
    </edge>
    <edge id=":C2_25" function="internal">
        <lane id=":C2_25_0" index="0" speed="11.36" length="24.66" shape="-188.16,-199.11 -191.25,-199.55 -197.00,-203.00 -200.45,-208.75 -201.60,-216.80"/>
    </edge>
    <edge id=":C2_12" function="internal">
        <lane id=":C2_12_0" index="0" speed="6.51" length="9.03" shape="-188.80,-216.80 -188.45,-214.35 -187.40,-212.60 -185.65,-211.55 -183.20,-211.20"/>
    </edge>
    <edge id=":C2_13" function="internal">
        <lane id=":C2_13_0" index="0" speed="13.89" length="33.60" shape="-188.80,-216.80 -188.80,-183.20"/>
        <lane id=":C2_13_1" index="1" speed="13.89" length="33.60" shape="-192.00,-216.80 -192.00,-183.20"/>
        <lane id=":C2_13_2" index="2" speed="13.89" length="33.60" shape="-195.20,-216.80 -195.20,-183.20"/>
        <lane id=":C2_13_3" index="3" speed="13.89" length="33.60" shape="-198.40,-216.80 -198.40,-183.20"/>
    </edge>
    <edge id=":C2_17" function="internal">
        <lane id=":C2_17_0" index="0" speed="11.36" length="5.01" shape="-198.40,-216.80 -199.11,-211.84"/>
    </edge>
    <edge id=":C2_26" function="internal">
        <lane id=":C2_26_0" index="0" speed="11.36" length="24.66" shape="-199.11,-211.84 -199.55,-208.75 -203.00,-203.00 -208.75,-199.55 -216.80,-198.40"/>
    </edge>
    <edge id=":C2_18" function="internal">
        <lane id=":C2_18_0" index="0" speed="6.51" length="9.03" shape="-216.80,-211.20 -214.35,-211.55 -212.60,-212.60 -211.55,-214.35 -211.20,-216.80"/>
    </edge>
    <edge id=":C2_19" function="internal">
        <lane id=":C2_19_0" index="0" speed="13.89" length="33.60" shape="-216.80,-211.20 -183.20,-211.20"/>
        <lane id=":C2_19_1" index="1" speed="13.89" length="33.60" shape="-216.80,-208.00 -183.20,-208.00"/>
        <lane id=":C2_19_2" index="2" speed="13.89" length="33.60" shape="-216.80,-204.80 -183.20,-204.80"/>
        <lane id=":C2_19_3" index="3" speed="13.89" length="33.60" shape="-216.80,-201.60 -183.20,-201.60"/>
    </edge>
    <edge id=":C2_23" function="internal">
        <lane id=":C2_23_0" index="0" speed="11.36" length="5.01" shape="-216.80,-201.60 -211.84,-200.89"/>
    </edge>
    <edge id=":C2_27" function="internal">
        <lane id=":C2_27_0" index="0" speed="11.36" length="24.66" shape="-211.84,-200.89 -208.75,-200.45 -203.00,-197.00 -199.55,-191.25 -198.40,-183.20"/>
    </edge>
    <edge id=":C3_0" function="internal">
        <lane id=":C3_0_0" index="0" speed="6.51" length="9.03" shape="188.80,216.80 188.45,214.35 187.40,212.60 185.65,211.55 183.20,211.20"/>
    </edge>
    <edge id=":C3_1" function="internal">
        <lane id=":C3_1_0" index="0" speed="13.89" length="33.60" shape="188.80,216.80 188.80,183.20"/>
        <lane id=":C3_1_1" index="1" speed="13.89" length="33.60" shape="192.00,216.80 192.00,183.20"/>
        <lane id=":C3_1_2" index="2" speed="13.89" length="33.60" shape="195.20,216.80 195.20,183.20"/>
        <lane id=":C3_1_3" index="3" speed="13.89" length="33.60" shape="198.40,216.80 198.40,183.20"/>
    </edge>
    <edge id=":C3_5" function="internal">
        <lane id=":C3_5_0" index="0" speed="11.36" length="5.01" shape="198.40,216.80 199.11,211.84"/>
    </edge>
    <edge id=":C3_24" function="internal">
        <lane id=":C3_24_0" index="0" speed="11.36" length="24.66" shape="199.11,211.84 199.55,208.75 203.00,203.00 208.75,199.55 216.80,198.40"/>
    </edge>
    <edge id=":C3_6" function="internal">
        <lane id=":C3_6_0" index="0" speed="6.51" length="9.03" shape="216.80,211.20 214.35,211.55 212.60,212.60 211.55,214.35 211.20,216.80"/>
    </edge>
    <edge id=":C3_7" function="internal">
        <lane id=":C3_7_0" index="0" speed="13.89" length="33.60" shape="216.80,211.20 183.20,211.20"/>
        <lane id=":C3_7_1" index="1" speed="13.89" length="33.60" shape="216.80,208.00 183.20,208.00"/>
        <lane id=":C3_7_2" index="2" speed="13.89" length="33.60" shape="216.80,204.80 183.20,204.80"/>
        <lane id=":C3_7_3" index="3" speed="13.89" length="33.60" shape="216.80,201.60 183.20,201.60"/>
    </edge>
    <edge id=":C3_11" function="internal">
        <lane id=":C3_11_0" index="0" speed="11.36" length="5.01" shape="216.80,201.60 211.84,200.89"/>
    </edge>
    <edge id=":C3_25" function="internal">
        <lane id=":C3_25_0" index="0" speed="11.36" length="24.66" shape="211.84,200.89 208.75,200.45 203.00,197.00 199.55,191.25 198.40,183.20"/>
    </edge>
    <edge id=":C3_12" function="internal">
        <lane id=":C3_12_0" index="0" speed="6.51" length="9.03" shape="211.20,183.20 211.55,185.65 212.60,187.40 214.35,188.45 216.80,188.80"/>
    </edge>
    <edge id=":C3_13" function="internal">
        <lane id=":C3_13_0" index="0" speed="13.89" length="33.60" shape="211.20,183.20 211.20,216.80"/>
        <lane id=":C3_13_1" index="1" speed="13.89" length="33.60" shape="208.00,183.20 208.00,216.80"/>
        <lane id=":C3_13_2" index="2" speed="13.89" length="33.60" shape="204.80,183.20 204.80,216.80"/>
        <lane id=":C3_13_3" index="3" speed="13.89" length="33.60" shape="201.60,183.20 201.60,216.80"/>
    </edge>
    <edge id=":C3_17" function="internal">
        <lane id=":C3_17_0" index="0" speed="11.36" length="5.01" shape="201.60,183.20 200.89,188.16"/>
    </edge>
    <edge id=":C3_26" function="internal">
        <lane id=":C3_26_0" index="0" speed="11.36" length="24.66" shape="200.89,188.16 200.45,191.25 197.00,197.00 191.25,200.45 183.20,201.60"/>
    </edge>
    <edge id=":C3_18" function="internal">
        <lane id=":C3_18_0" index="0" speed="6.51" length="9.03" shape="183.20,188.80 185.65,188.45 187.40,187.40 188.45,185.65 188.80,183.20"/>
    </edge>
    <edge id=":C3_19" function="internal">
        <lane id=":C3_19_0" index="0" speed="13.89" length="33.60" shape="183.20,188.80 216.80,188.80"/>
        <lane id=":C3_19_1" index="1" speed="13.89" length="33.60" shape="183.20,192.00 216.80,192.00"/>
        <lane id=":C3_19_2" index="2" speed="13.89" length="33.60" shape="183.20,195.20 216.80,195.20"/>
        <lane id=":C3_19_3" index="3" speed="13.89" length="33.60" shape="183.20,198.40 216.80,198.40"/>
    </edge>
    <edge id=":C3_23" function="internal">
        <lane id=":C3_23_0" index="0" speed="11.36" length="5.01" shape="183.20,198.40 188.16,199.11"/>
    </edge>
    <edge id=":C3_27" function="internal">
        <lane id=":C3_27_0" index="0" speed="11.36" length="24.66" shape="188.16,199.11 191.25,199.55 197.00,203.00 200.45,208.75 201.60,216.80"/>
    </edge>
    <edge id=":C4_0" function="internal">
        <lane id=":C4_0_0" index="0" speed="6.51" length="9.03" shape="188.80,-183.20 188.45,-185.65 187.40,-187.40 185.65,-188.45 183.20,-188.80"/>
    </edge>
    <edge id=":C4_1" function="internal">
        <lane id=":C4_1_0" index="0" speed="13.89" length="33.60" shape="188.80,-183.20 188.80,-216.80"/>
        <lane id=":C4_1_1" index="1" speed="13.89" length="33.60" shape="192.00,-183.20 192.00,-216.80"/>
        <lane id=":C4_1_2" index="2" speed="13.89" length="33.60" shape="195.20,-183.20 195.20,-216.80"/>
        <lane id=":C4_1_3" index="3" speed="13.89" length="33.60" shape="198.40,-183.20 198.40,-216.80"/>
    </edge>
    <edge id=":C4_5" function="internal">
        <lane id=":C4_5_0" index="0" speed="11.36" length="5.01" shape="198.40,-183.20 199.11,-188.16"/>
    </edge>
    <edge id=":C4_24" function="internal">
        <lane id=":C4_24_0" index="0" speed="11.36" length="24.66" shape="199.11,-188.16 199.55,-191.25 203.00,-197.00 208.75,-200.45 216.80,-201.60"/>
    </edge>
    <edge id=":C4_6" function="internal">
        <lane id=":C4_6_0" index="0" speed="6.51" length="9.03" shape="216.80,-188.80 214.35,-188.45 212.60,-187.40 211.55,-185.65 211.20,-183.20"/>
    </edge>
    <edge id=":C4_7" function="internal">
        <lane id=":C4_7_0" index="0" speed="13.89" length="33.60" shape="216.80,-188.80 183.20,-188.80"/>
        <lane id=":C4_7_1" index="1" speed="13.89" length="33.60" shape="216.80,-192.00 183.20,-192.00"/>
        <lane id=":C4_7_2" index="2" speed="13.89" length="33.60" shape="216.80,-195.20 183.20,-195.20"/>
        <lane id=":C4_7_3" index="3" speed="13.89" length="33.60" shape="216.80,-198.40 183.20,-198.40"/>
    </edge>
    <edge id=":C4_11" function="internal">
        <lane id=":C4_11_0" index="0" speed="11.36" length="5.01" shape="216.80,-198.40 211.84,-199.11"/>
    </edge>
    <edge id=":C4_25" function="internal">
        <lane id=":C4_25_0" index="0" speed="11.36" length="24.66" shape="211.84,-199.11 208.75,-199.55 203.00,-203.00 199.55,-208.75 198.40,-216.80"/>
    </edge>
    <edge id=":C4_12" function="internal">
        <lane id=":C4_12_0" index="0" speed="6.51" length="9.03" shape="211.20,-216.80 211.55,-214.35 212.60,-212.60 214.35,-211.55 216.80,-211.20"/>
    </edge>
    <edge id=":C4_13" function="internal">
        <lane id=":C4_13_0" index="0" speed="13.89" length="33.60" shape="211.20,-216.80 211.20,-183.20"/>
        <lane id=":C4_13_1" index="1" speed="13.89" length="33.60" shape="208.00,-216.80 208.00,-183.20"/>
        <lane id=":C4_13_2" index="2" speed="13.89" length="33.60" shape="204.80,-216.80 204.80,-183.20"/>
        <lane id=":C4_13_3" index="3" speed="13.89" length="33.60" shape="201.60,-216.80 201.60,-183.20"/>
    </edge>
    <edge id=":C4_17" function="internal">
        <lane id=":C4_17_0" index="0" speed="11.36" length="5.01" shape="201.60,-216.80 200.89,-211.84"/>
    </edge>
    <edge id=":C4_26" function="internal">
        <lane id=":C4_26_0" index="0" speed="11.36" length="24.66" shape="200.89,-211.84 200.45,-208.75 197.00,-203.00 191.25,-199.55 183.20,-198.40"/>
    </edge>
    <edge id=":C4_18" function="internal">
        <lane id=":C4_18_0" index="0" speed="6.51" length="9.03" shape="183.20,-211.20 185.65,-211.55 187.40,-212.60 188.45,-214.35 188.80,-216.80"/>
    </edge>
    <edge id=":C4_19" function="internal">
        <lane id=":C4_19_0" index="0" speed="13.89" length="33.60" shape="183.20,-211.20 216.80,-211.20"/>
        <lane id=":C4_19_1" index="1" speed="13.89" length="33.60" shape="183.20,-208.00 216.80,-208.00"/>
        <lane id=":C4_19_2" index="2" speed="13.89" length="33.60" shape="183.20,-204.80 216.80,-204.80"/>
        <lane id=":C4_19_3" index="3" speed="13.89" length="33.60" shape="183.20,-201.60 216.80,-201.60"/>
    </edge>
    <edge id=":C4_23" function="internal">
        <lane id=":C4_23_0" index="0" speed="11.36" length="5.01" shape="183.20,-201.60 188.16,-200.89"/>
    </edge>
    <edge id=":C4_27" function="internal">
        <lane id=":C4_27_0" index="0" speed="11.36" length="24.66" shape="188.16,-200.89 191.25,-200.45 197.00,-197.00 200.45,-191.25 201.60,-183.20"/>
    </edge>

    <edge id="C12C2" from="C1" to="C2" priority="-1">
        <lane id="C12C2_0" index="0" speed="13.89" length="366.40" shape="-211.20,183.20 -211.20,-183.20"/>
        <lane id="C12C2_1" index="1" speed="13.89" length="366.40" shape="-208.00,183.20 -208.00,-183.20"/>
        <lane id="C12C2_2" index="2" speed="13.89" length="366.40" shape="-204.80,183.20 -204.80,-183.20"/>
        <lane id="C12C2_3" index="3" speed="13.89" length="366.40" shape="-201.60,183.20 -201.60,-183.20"/>
    </edge>
    <edge id="C12C3" from="C1" to="C3" priority="-1">
        <lane id="C12C3_0" index="0" speed="13.89" length="366.40" shape="-183.20,188.80 183.20,188.80"/>
        <lane id="C12C3_1" index="1" speed="13.89" length="366.40" shape="-183.20,192.00 183.20,192.00"/>
        <lane id="C12C3_2" index="2" speed="13.89" length="366.40" shape="-183.20,195.20 183.20,195.20"/>
        <lane id="C12C3_3" index="3" speed="13.89" length="366.40" shape="-183.20,198.40 183.20,198.40"/>
    </edge>
    <edge id="C12N1" from="C1" to="N1" priority="-1">
        <lane id="C12N1_0" index="0" speed="13.89" length="183.20" shape="-188.80,216.80 -188.80,400.00"/>
        <lane id="C12N1_1" index="1" speed="13.89" length="183.20" shape="-192.00,216.80 -192.00,400.00"/>
        <lane id="C12N1_2" index="2" speed="13.89" length="183.20" shape="-195.20,216.80 -195.20,400.00"/>
        <lane id="C12N1_3" index="3" speed="13.89" length="183.20" shape="-198.40,216.80 -198.40,400.00"/>
    </edge>
    <edge id="C12W1" from="C1" to="W1" priority="-1">
        <lane id="C12W1_0" index="0" speed="13.89" length="183.20" shape="-216.80,211.20 -400.00,211.20"/>
        <lane id="C12W1_1" index="1" speed="13.89" length="183.20" shape="-216.80,208.00 -400.00,208.00"/>
        <lane id="C12W1_2" index="2" speed="13.89" length="183.20" shape="-216.80,204.80 -400.00,204.80"/>
        <lane id="C12W1_3" index="3" speed="13.89" length="183.20" shape="-216.80,201.60 -400.00,201.60"/>
    </edge>
    <edge id="C22C1" from="C2" to="C1" priority="-1">
        <lane id="C22C1_0" index="0" speed="13.89" length="366.40" shape="-188.80,-183.20 -188.80,183.20"/>
        <lane id="C22C1_1" index="1" speed="13.89" length="366.40" shape="-192.00,-183.20 -192.00,183.20"/>
        <lane id="C22C1_2" index="2" speed="13.89" length="366.40" shape="-195.20,-183.20 -195.20,183.20"/>
        <lane id="C22C1_3" index="3" speed="13.89" length="366.40" shape="-198.40,-183.20 -198.40,183.20"/>
    </edge>
    <edge id="C22C4" from="C2" to="C4" priority="-1">
        <lane id="C22C4_0" index="0" speed="13.89" length="366.40" shape="-183.20,-211.20 183.20,-211.20"/>
        <lane id="C22C4_1" index="1" speed="13.89" length="366.40" shape="-183.20,-208.00 183.20,-208.00"/>
        <lane id="C22C4_2" index="2" speed="13.89" length="366.40" shape="-183.20,-204.80 183.20,-204.80"/>
        <lane id="C22C4_3" index="3" speed="13.89" length="366.40" shape="-183.20,-201.60 183.20,-201.60"/>
    </edge>
    <edge id="C22S1" from="C2" to="S1" priority="-1">
        <lane id="C22S1_0" index="0" speed="13.89" length="183.20" shape="-211.20,-216.80 -211.20,-400.00"/>
        <lane id="C22S1_1" index="1" speed="13.89" length="183.20" shape="-208.00,-216.80 -208.00,-400.00"/>
        <lane id="C22S1_2" index="2" speed="13.89" length="183.20" shape="-204.80,-216.80 -204.80,-400.00"/>
        <lane id="C22S1_3" index="3" speed="13.89" length="183.20" shape="-201.60,-216.80 -201.60,-400.00"/>
    </edge>
    <edge id="C22W2" from="C2" to="W2" priority="-1">
        <lane id="C22W2_0" index="0" speed="13.89" length="183.20" shape="-216.80,-188.80 -400.00,-188.80"/>
        <lane id="C22W2_1" index="1" speed="13.89" length="183.20" shape="-216.80,-192.00 -400.00,-192.00"/>
        <lane id="C22W2_2" index="2" speed="13.89" length="183.20" shape="-216.80,-195.20 -400.00,-195.20"/>
        <lane id="C22W2_3" index="3" speed="13.89" length="183.20" shape="-216.80,-198.40 -400.00,-198.40"/>
    </edge>
    <edge id="C32C1" from="C3" to="C1" priority="-1">
        <lane id="C32C1_0" index="0" speed="13.89" length="366.40" shape="183.20,211.20 -183.20,211.20"/>
        <lane id="C32C1_1" index="1" speed="13.89" length="366.40" shape="183.20,208.00 -183.20,208.00"/>
        <lane id="C32C1_2" index="2" speed="13.89" length="366.40" shape="183.20,204.80 -183.20,204.80"/>
        <lane id="C32C1_3" index="3" speed="13.89" length="366.40" shape="183.20,201.60 -183.20,201.60"/>
    </edge>
    <edge id="C32C4" from="C3" to="C4" priority="-1">
        <lane id="C32C4_0" index="0" speed="13.89" length="366.40" shape="188.80,183.20 188.80,-183.20"/>
        <lane id="C32C4_1" index="1" speed="13.89" length="366.40" shape="192.00,183.20 192.00,-183.20"/>
        <lane id="C32C4_2" index="2" speed="13.89" length="366.40" shape="195.20,183.20 195.20,-183.20"/>
        <lane id="C32C4_3" index="3" speed="13.89" length="366.40" shape="198.40,183.20 198.40,-183.20"/>
    </edge>
    <edge id="C32E1" from="C3" to="E1" priority="-1">
        <lane id="C32E1_0" index="0" speed="13.89" length="183.20" shape="216.80,188.80 400.00,188.80"/>
        <lane id="C32E1_1" index="1" speed="13.89" length="183.20" shape="216.80,192.00 400.00,192.00"/>
        <lane id="C32E1_2" index="2" speed="13.89" length="183.20" shape="216.80,195.20 400.00,195.20"/>
        <lane id="C32E1_3" index="3" speed="13.89" length="183.20" shape="216.80,198.40 400.00,198.40"/>
    </edge>
    <edge id="C32N2" from="C3" to="N2" priority="-1">
        <lane id="C32N2_0" index="0" speed="13.89" length="183.20" shape="211.20,216.80 211.20,400.00"/>
        <lane id="C32N2_1" index="1" speed="13.89" length="183.20" shape="208.00,216.80 208.00,400.00"/>
        <lane id="C32N2_2" index="2" speed="13.89" length="183.20" shape="204.80,216.80 204.80,400.00"/>
        <lane id="C32N2_3" index="3" speed="13.89" length="183.20" shape="201.60,216.80 201.60,400.00"/>
    </edge>
    <edge id="C42C2" from="C4" to="C2" priority="-1">
        <lane id="C42C2_0" index="0" speed="13.89" length="366.40" shape="183.20,-188.80 -183.20,-188.80"/>
        <lane id="C42C2_1" index="1" speed="13.89" length="366.40" shape="183.20,-192.00 -183.20,-192.00"/>
        <lane id="C42C2_2" index="2" speed="13.89" length="366.40" shape="183.20,-195.20 -183.20,-195.20"/>
        <lane id="C42C2_3" index="3" speed="13.89" length="366.40" shape="183.20,-198.40 -183.20,-198.40"/>
    </edge>
    <edge id="C42C3" from="C4" to="C3" priority="-1">
        <lane id="C42C3_0" index="0" speed="13.89" length="366.40" shape="211.20,-183.20 211.20,183.20"/>
        <lane id="C42C3_1" index="1" speed="13.89" length="366.40" shape="208.00,-183.20 208.00,183.20"/>
        <lane id="C42C3_2" index="2" speed="13.89" length="366.40" shape="204.80,-183.20 204.80,183.20"/>
        <lane id="C42C3_3" index="3" speed="13.89" length="366.40" shape="201.60,-183.20 201.60,183.20"/>
    </edge>
    <edge id="C42E2" from="C4" to="E2" priority="-1">
        <lane id="C42E2_0" index="0" speed="13.89" length="183.20" shape="216.80,-211.20 400.00,-211.20"/>
        <lane id="C42E2_1" index="1" speed="13.89" length="183.20" shape="216.80,-208.00 400.00,-208.00"/>
        <lane id="C42E2_2" index="2" speed="13.89" length="183.20" shape="216.80,-204.80 400.00,-204.80"/>
        <lane id="C42E2_3" index="3" speed="13.89" length="183.20" shape="216.80,-201.60 400.00,-201.60"/>
    </edge>
    <edge id="C42S2" from="C4" to="S2" priority="-1">
        <lane id="C42S2_0" index="0" speed="13.89" length="183.20" shape="188.80,-216.80 188.80,-400.00"/>
        <lane id="C42S2_1" index="1" speed="13.89" length="183.20" shape="192.00,-216.80 192.00,-400.00"/>
        <lane id="C42S2_2" index="2" speed="13.89" length="183.20" shape="195.20,-216.80 195.20,-400.00"/>
        <lane id="C42S2_3" index="3" speed="13.89" length="183.20" shape="198.40,-216.80 198.40,-400.00"/>
    </edge>
    <edge id="E12C3" from="E1" to="C3" priority="-1">
        <lane id="E12C3_0" index="0" speed="13.89" length="183.20" shape="400.00,211.20 216.80,211.20"/>
        <lane id="E12C3_1" index="1" speed="13.89" length="183.20" shape="400.00,208.00 216.80,208.00"/>
        <lane id="E12C3_2" index="2" speed="13.89" length="183.20" shape="400.00,204.80 216.80,204.80"/>
        <lane id="E12C3_3" index="3" speed="13.89" length="183.20" shape="400.00,201.60 216.80,201.60"/>
    </edge>
    <edge id="E22C4" from="E2" to="C4" priority="-1">
        <lane id="E22C4_0" index="0" speed="13.89" length="183.20" shape="400.00,-188.80 216.80,-188.80"/>
        <lane id="E22C4_1" index="1" speed="13.89" length="183.20" shape="400.00,-192.00 216.80,-192.00"/>
        <lane id="E22C4_2" index="2" speed="13.89" length="183.20" shape="400.00,-195.20 216.80,-195.20"/>
        <lane id="E22C4_3" index="3" speed="13.89" length="183.20" shape="400.00,-198.40 216.80,-198.40"/>
    </edge>
    <edge id="N12C1" from="N1" to="C1" priority="-1">
        <lane id="N12C1_0" index="0" speed="13.89" length="183.20" shape="-211.20,400.00 -211.20,216.80"/>
        <lane id="N12C1_1" index="1" speed="13.89" length="183.20" shape="-208.00,400.00 -208.00,216.80"/>
        <lane id="N12C1_2" index="2" speed="13.89" length="183.20" shape="-204.80,400.00 -204.80,216.80"/>
        <lane id="N12C1_3" index="3" speed="13.89" length="183.20" shape="-201.60,400.00 -201.60,216.80"/>
    </edge>
    <edge id="N22C3" from="N2" to="C3" priority="-1">
        <lane id="N22C3_0" index="0" speed="13.89" length="183.20" shape="188.80,400.00 188.80,216.80"/>
        <lane id="N22C3_1" index="1" speed="13.89" length="183.20" shape="192.00,400.00 192.00,216.80"/>
        <lane id="N22C3_2" index="2" speed="13.89" length="183.20" shape="195.20,400.00 195.20,216.80"/>
        <lane id="N22C3_3" index="3" speed="13.89" length="183.20" shape="198.40,400.00 198.40,216.80"/>
    </edge>
    <edge id="S12C2" from="S1" to="C2" priority="-1">
        <lane id="S12C2_0" index="0" speed="13.89" length="183.20" shape="-188.80,-400.00 -188.80,-216.80"/>
        <lane id="S12C2_1" index="1" speed="13.89" length="183.20" shape="-192.00,-400.00 -192.00,-216.80"/>
        <lane id="S12C2_2" index="2" speed="13.89" length="183.20" shape="-195.20,-400.00 -195.20,-216.80"/>
        <lane id="S12C2_3" index="3" speed="13.89" length="183.20" shape="-198.40,-400.00 -198.40,-216.80"/>
    </edge>
    <edge id="S22C4" from="S2" to="C4" priority="-1">
        <lane id="S22C4_0" index="0" speed="13.89" length="183.20" shape="211.20,-400.00 211.20,-216.80"/>
        <lane id="S22C4_1" index="1" speed="13.89" length="183.20" shape="208.00,-400.00 208.00,-216.80"/>
        <lane id="S22C4_2" index="2" speed="13.89" length="183.20" shape="204.80,-400.00 204.80,-216.80"/>
        <lane id="S22C4_3" index="3" speed="13.89" length="183.20" shape="201.60,-400.00 201.60,-216.80"/>
    </edge>
    <edge id="W12C1" from="W1" to="C1" priority="-1">
        <lane id="W12C1_0" index="0" speed="13.89" length="183.20" shape="-400.00,188.80 -216.80,188.80"/>
        <lane id="W12C1_1" index="1" speed="13.89" length="183.20" shape="-400.00,192.00 -216.80,192.00"/>
        <lane id="W12C1_2" index="2" speed="13.89" length="183.20" shape="-400.00,195.20 -216.80,195.20"/>
        <lane id="W12C1_3" index="3" speed="13.89" length="183.20" shape="-400.00,198.40 -216.80,198.40"/>
    </edge>
    <edge id="W22C2" from="W2" to="C2" priority="-1">
        <lane id="W22C2_0" index="0" speed="13.89" length="183.20" shape="-400.00,-211.20 -216.80,-211.20"/>
        <lane id="W22C2_1" index="1" speed="13.89" length="183.20" shape="-400.00,-208.00 -216.80,-208.00"/>
        <lane id="W22C2_2" index="2" speed="13.89" length="183.20" shape="-400.00,-204.80 -216.80,-204.80"/>
        <lane id="W22C2_3" index="3" speed="13.89" length="183.20" shape="-400.00,-201.60 -216.80,-201.60"/>
    </edge>
