<?xml version="1.0" ?>
<routes>
   <vType id="civilian" accel="2.6" decel="4.5" sigma="0.5" length="5" maxSpeed="13.89" color="0,1,0"/>
   <vType id="emergency" vClass="emergency" accel="3.5" decel="5.0" sigma="0" length="7" maxSpeed="20" color="1,0,0" guiShape="emergency">
      <param key="has.bluelight.device" value="true"/>
   </vType>
   <vehicle id="civilian_1481" type="civilian" depart="0.45085794690287173">
      <route edges="E2C C2N"/>
   </vehicle>
   <vehicle id="civilian_5202" type="civilian" depart="0.5177836790902113">
      <route edges="N2C C2W"/>
   </vehicle>
   <vehicle id="civilian_856" type="civilian" depart="1.8282835723655744">
      <route edges="W2C C2S"/>
   </vehicle>
   <vehicle id="civilian_169" type="civilian" depart="1.9050702906110217">
      <route edges="S2C C2W"/>
   </vehicle>
   <vehicle id="civilian_4318" type="civilian" depart="2.8647064225560293">
      <route edges="N2C C2S"/>
   </vehicle>
   <vehicle id="civilian_9806" type="civilian" depart="5.079159766244334">
      <route edges="E2C C2W"/>
   </vehicle>
   <vehicle id="civilian_8075" type="civilian" depart="5.9861954983023935">
      <route edges="E2C C2S"/>
   </vehicle>
   <vehicle id="civilian_6108" type="civilian" depart="7.491159545895609">
      <route edges="E2C C2N"/>
   </vehicle>
   <vehicle id="civilian_2496" type="civilian" depart="8.389356249357416">
      <route edges="W2C C2E"/>
   </vehicle>
   <vehicle id="civilian_7069" type="civilian" depart="8.760529464244282">
      <route edges="W2C C2S"/>
   </vehicle>
   <vehicle id="civilian_8857" type="civilian" depart="8.997137714819736">
      <route edges="N2C C2W"/>
   </vehicle>
   <vehicle id="civilian_8743" type="civilian" depart="12.597287436738203">
      <route edges="E2C C2W"/>
   </vehicle>
   <vehicle id="civilian_1958" type="civilian" depart="13.727446049039305">
      <route edges="N2C C2S"/>
   </vehicle>
   <vehicle id="civilian_3907" type="civilian" depart="14.040252587643653">
      <route edges="E2C C2W"/>
   </vehicle>
   <vehicle id="civilian_9377" type="civilian" depart="14.303624272144955">
      <route edges="S2C C2N"/>
   </vehicle>
   <vehicle id="civilian_1894" type="civilian" depart="14.774636182070289">
      <route edges="S2C C2W"/>
   </vehicle>
   <vehicle id="civilian_4283" type="civilian" depart="15.221052708211591">
      <route edges="E2C C2W"/>
   </vehicle>
   <vehicle id="civilian_527" type="civilian" depart="15.254468463218629">
      <route edges="W2C C2N"/>
   </vehicle>
   <vehicle id="civilian_814" type="civilian" depart="15.401283081323758">
      <route edges="N2C C2E"/>
   </vehicle>
   <vehicle id="civilian_9425" type="civilian" depart="15.512116095381412">
      <route edges="S2C C2W"/>
   </vehicle>
   <vehicle id="civilian_2993" type="civilian" depart="15.575603749542477">
      <route edges="E2C C2N"/>
   </vehicle>
   <vehicle id="civilian_6861" type="civilian" depart="15.711117971388067">
      <route edges="S2C C2E"/>
   </vehicle>
   <vehicle id="civilian_2778" type="civilian" depart="16.68958395324598">
      <route edges="W2C C2N"/>
   </vehicle>
   <vehicle id="civilian_835" type="civilian" depart="16.96788497326951">
      <route edges="E2C C2W"/>
   </vehicle>
   <vehicle id="civilian_9219" type="civilian" depart="17.145595013641568">
      <route edges="N2C C2W"/>
   </vehicle>
   <vehicle id="civilian_869" type="civilian" depart="18.374282442437107">
      <route edges="S2C C2N"/>
   </vehicle>
   <vehicle id="civilian_9090" type="civilian" depart="20.683650539262466">
      <route edges="S2C C2N"/>
   </vehicle>
   <vehicle id="civilian_9831" type="civilian" depart="21.193311894765365">
      <route edges="E2C C2W"/>
   </vehicle>
   <vehicle id="civilian_5911" type="civilian" depart="21.782041173755218">
      <route edges="E2C C2N"/>
   </vehicle>
   <vehicle id="civilian_5533" type="civilian" depart="23.418152008691173">
      <route edges="W2C C2N"/>
   </vehicle>
   <vehicle id="civilian_4048" type="civilian" depart="24.29607628549002">
      <route edges="S2C C2E"/>
   </vehicle>
   <vehicle id="civilian_737" type="civilian" depart="25.18628482466978">
      <route edges="N2C C2W"/>
   </vehicle>
   <vehicle id="civilian_4486" type="civilian" depart="25.933456131214427">
      <route edges="E2C C2S"/>
   </vehicle>
   <vehicle id="civilian_539" type="civilian" depart="26.31009417638559">
      <route edges="N2C C2E"/>
   </vehicle>
   <vehicle id="civilian_4700" type="civilian" depart="27.045186755764572">
      <route edges="S2C C2E"/>
   </vehicle>
   <vehicle id="civilian_7430" type="civilian" depart="27.656106508415412">
      <route edges="S2C C2N"/>
   </vehicle>
   <vehicle id="civilian_8336" type="civilian" depart="28.5837586546557">
      <route edges="W2C C2N"/>
   </vehicle>
   <vehicle id="civilian_2862" type="civilian" depart="28.68076656938401">
      <route edges="W2C C2E"/>
   </vehicle>
   <vehicle id="civilian_3412" type="civilian" depart="28.73086615085141">
      <route edges="E2C C2N"/>
   </vehicle>
   <vehicle id="civilian_8241" type="civilian" depart="29.402095591564237">
      <route edges="N2C C2E"/>
   </vehicle>
   <vehicle id="civilian_1650" type="civilian" depart="30.70421283599094">
      <route edges="E2C C2S"/>
   </vehicle>
   <vehicle id="civilian_7236" type="civilian" depart="30.78427482706374">
      <route edges="N2C C2W"/>
   </vehicle>
   <vehicle id="civilian_3999" type="civilian" depart="30.798872408688815">
      <route edges="E2C C2N"/>
   </vehicle>
   <vehicle id="civilian_380" type="civilian" depart="31.098294085435096">
      <route edges="W2C C2S"/>
   </vehicle>
   <vehicle id="civilian_29" type="civilian" depart="31.828686233194947">
      <route edges="N2C C2S"/>
   </vehicle>
   <vehicle id="civilian_3233" type="civilian" depart="31.893550132705695">
      <route edges="W2C C2S"/>
   </vehicle>
   <vehicle id="civilian_7504" type="civilian" depart="31.91125718598533">
      <route edges="N2C C2W"/>
   </vehicle>
   <vehicle id="civilian_2249" type="civilian" depart="32.51163543427636">
      <route edges="E2C C2S"/>
   </vehicle>
   <vehicle id="civilian_8863" type="civilian" depart="32.5864632367594">
      <route edges="W2C C2N"/>
   </vehicle>
   <vehicle id="civilian_8024" type="civilian" depart="34.29743116292423">
      <route edges="S2C C2N"/>
   </vehicle>
   <vehicle id="civilian_7985" type="civilian" depart="34.592445643008496">
      <route edges="S2C C2N"/>
   </vehicle>
   <vehicle id="civilian_2132" type="civilian" depart="35.28948863664931">
      <route edges="E2C C2N"/>
   </vehicle>
   <vehicle id="civilian_8734" type="civilian" depart="35.47716863834509">
      <route edges="N2C C2S"/>
   </vehicle>
   <vehicle id="civilian_2187" type="civilian" depart="35.734567365908546">
      <route edges="E2C C2N"/>
   </vehicle>
   <vehicle id="civilian_3908" type="civilian" depart="36.47074324880801">
      <route edges="N2C C2W"/>
   </vehicle>
   <vehicle id="civilian_8406" type="civilian" depart="36.57730491671289">
      <route edges="N2C C2W"/>
   </vehicle>
   <vehicle id="civilian_9698" type="civilian" depart="37.549930954352995">
      <route edges="E2C C2S"/>
   </vehicle>
   <vehicle id="civilian_6034" type="civilian" depart="37.91544916626437">
      <route edges="S2C C2E"/>
   </vehicle>
   <vehicle id="civilian_3195" type="civilian" depart="38.830149047556084">
      <route edges="E2C C2N"/>
   </vehicle>
   <vehicle id="civilian_9864" type="civilian" depart="39.26880833379016">
      <route edges="E2C C2S"/>
   </vehicle>
   <vehicle id="civilian_5991" type="civilian" depart="40.36550592216442">
      <route edges="N2C C2S"/>
   </vehicle>
   <vehicle id="civilian_9762" type="civilian" depart="40.62997201243013">
      <route edges="E2C C2N"/>
   </vehicle>
   <vehicle id="civilian_4807" type="civilian" depart="43.51357130414888">
      <route edges="S2C C2E"/>
   </vehicle>
   <vehicle id="civilian_4114" type="civilian" depart="44.350737472308396">
      <route edges="E2C C2S"/>
   </vehicle>
   <vehicle id="civilian_5863" type="civilian" depart="44.67896768621608">
      <route edges="W2C C2S"/>
   </vehicle>
   <vehicle id="civilian_2751" type="civilian" depart="44.74824948097806">
      <route edges="W2C C2E"/>
   </vehicle>
   <vehicle id="civilian_330" type="civilian" depart="45.17265190484068">
      <route edges="S2C C2W"/>
   </vehicle>
   <vehicle id="civilian_1595" type="civilian" depart="45.482723609580056">
      <route edges="W2C C2N"/>
   </vehicle>
   <vehicle id="civilian_9013" type="civilian" depart="45.893665487434454">
      <route edges="S2C C2W"/>
   </vehicle>
   <vehicle id="civilian_3316" type="civilian" depart="47.809737708172406">
      <route edges="E2C C2N"/>
   </vehicle>
   <vehicle id="civilian_806" type="civilian" depart="47.83073272834759">
      <route edges="W2C C2N"/>
   </vehicle>
   <vehicle id="civilian_4867" type="civilian" depart="48.054614312008326">
      <route edges="W2C C2S"/>
   </vehicle>
   <vehicle id="civilian_2295" type="civilian" depart="48.16791765885311">
      <route edges="E2C C2W"/>
   </vehicle>
   <vehicle id="civilian_5675" type="civilian" depart="48.290346586589635">
      <route edges="W2C C2E"/>
   </vehicle>
   <vehicle id="civilian_967" type="civilian" depart="50.46422638938131">
      <route edges="E2C C2W"/>
   </vehicle>
   <vehicle id="civilian_9488" type="civilian" depart="51.283368456527526">
      <route edges="W2C C2E"/>
   </vehicle>
   <vehicle id="civilian_9068" type="civilian" depart="51.907381809732556">
      <route edges="N2C C2W"/>
   </vehicle>
   <vehicle id="civilian_7091" type="civilian" depart="53.05135513864592">
      <route edges="W2C C2E"/>
   </vehicle>
   <vehicle id="civilian_4220" type="civilian" depart="53.161254994803016">
      <route edges="E2C C2S"/>
   </vehicle>
   <vehicle id="civilian_5813" type="civilian" depart="55.29578417640515">
      <route edges="N2C C2E"/>
   </vehicle>
   <vehicle id="civilian_583" type="civilian" depart="56.68901502714361">
      <route edges="W2C C2S"/>
   </vehicle>
   <vehicle id="civilian_8493" type="civilian" depart="57.70283767219313">
      <route edges="W2C C2N"/>
   </vehicle>
   <vehicle id="civilian_5299" type="civilian" depart="58.835596359590255">
      <route edges="N2C C2S"/>
   </vehicle>
   <vehicle id="civilian_2625" type="civilian" depart="58.987520781704106">
      <route edges="W2C C2N"/>
   </vehicle>
   <vehicle id="civilian_7545" type="civilian" depart="62.46532660690187">
      <route edges="N2C C2E"/>
   </vehicle>
   <vehicle id="civilian_9553" type="civilian" depart="62.95092240785802">
      <route edges="N2C C2E"/>
   </vehicle>
   <vehicle id="civilian_9060" type="civilian" depart="63.46550753632067">
      <route edges="N2C C2W"/>
   </vehicle>
   <vehicle id="civilian_874" type="civilian" depart="66.28669702118417">
      <route edges="E2C C2N"/>
   </vehicle>
   <vehicle id="civilian_142" type="civilian" depart="68.72781916014831">
      <route edges="N2C C2W"/>
   </vehicle>
   <vehicle id="civilian_1482" type="civilian" depart="70.9658862217057">
      <route edges="W2C C2N"/>
   </vehicle>
   <vehicle id="civilian_4270" type="civilian" depart="70.98951130674358">
      <route edges="E2C C2S"/>
   </vehicle>
   <vehicle id="civilian_3884" type="civilian" depart="71.05016184881619">
      <route edges="E2C C2S"/>
   </vehicle>
   <vehicle id="civilian_5384" type="civilian" depart="71.19087675671558">
      <route edges="S2C C2E"/>
   </vehicle>
   <vehicle id="civilian_2677" type="civilian" depart="72.0845361093871">
      <route edges="W2C C2S"/>
   </vehicle>
   <vehicle id="civilian_7575" type="civilian" depart="72.23624294045577">
      <route edges="N2C C2S"/>
   </vehicle>
   <vehicle id="civilian_3151" type="civilian" depart="73.67161284568881">
      <route edges="E2C C2N"/>
   </vehicle>
   <vehicle id="civilian_5359" type="civilian" depart="74.72984144295766">
      <route edges="N2C C2S"/>
   </vehicle>
   <vehicle id="civilian_4043" type="civilian" depart="74.76557730456994">
      <route edges="N2C C2E"/>
   </vehicle>
   <vehicle id="civilian_6208" type="civilian" depart="75.38110628972925">
      <route edges="S2C C2N"/>
   </vehicle>
   <vehicle id="civilian_6483" type="civilian" depart="75.67107149313034">
      <route edges="W2C C2N"/>
   </vehicle>
   <vehicle id="civilian_8781" type="civilian" depart="75.68506371843435">
      <route edges="N2C C2E"/>
   </vehicle>
   <vehicle id="civilian_9593" type="civilian" depart="75.98878073897568">
      <route edges="S2C C2W"/>
   </vehicle>
   <vehicle id="civilian_5828" type="civilian" depart="76.57199606408484">
      <route edges="E2C C2S"/>
   </vehicle>
   <vehicle id="civilian_2005" type="civilian" depart="76.76240807630083">
      <route edges="W2C C2N"/>
   </vehicle>
   <vehicle id="civilian_6944" type="civilian" depart="79.32735536956308">
      <route edges="S2C C2W"/>
   </vehicle>
   <vehicle id="civilian_8774" type="civilian" depart="80.2886825130245">
      <route edges="W2C C2S"/>
   </vehicle>
   <vehicle id="civilian_8696" type="civilian" depart="80.49394206729552">
      <route edges="N2C C2W"/>
   </vehicle>
   <vehicle id="civilian_9617" type="civilian" depart="82.85918524733633">
      <route edges="E2C C2N"/>
   </vehicle>
   <vehicle id="civilian_8383" type="civilian" depart="83.39083773561723">
      <route edges="S2C C2W"/>
   </vehicle>
   <vehicle id="civilian_7606" type="civilian" depart="83.9393549535493">
      <route edges="N2C C2E"/>
   </vehicle>
   <vehicle id="civilian_6874" type="civilian" depart="84.41388878864532">
      <route edges="N2C C2W"/>
   </vehicle>
   <vehicle id="civilian_3199" type="civilian" depart="85.4141520502548">
      <route edges="W2C C2N"/>
   </vehicle>
   <vehicle id="civilian_9022" type="civilian" depart="85.77114025284729">
      <route edges="S2C C2W"/>
   </vehicle>
   <vehicle id="civilian_9462" type="civilian" depart="86.22679977956551">
      <route edges="W2C C2S"/>
   </vehicle>
   <vehicle id="civilian_6842" type="civilian" depart="86.63915628631793">
      <route edges="S2C C2E"/>
   </vehicle>
   <vehicle id="civilian_9738" type="civilian" depart="86.96884713808828">
      <route edges="W2C C2S"/>
   </vehicle>
   <vehicle id="civilian_4383" type="civilian" depart="88.2313746616502">
      <route edges="W2C C2S"/>
   </vehicle>
   <vehicle id="civilian_2252" type="civilian" depart="88.31151736160976">
      <route edges="N2C C2W"/>
   </vehicle>
   <vehicle id="civilian_9147" type="civilian" depart="91.19300629659115">
      <route edges="N2C C2E"/>
   </vehicle>
   <vehicle id="civilian_8167" type="civilian" depart="91.54029115779964">
      <route edges="S2C C2N"/>
   </vehicle>
   <vehicle id="civilian_9445" type="civilian" depart="92.5461532838372">
      <route edges="N2C C2S"/>
   </vehicle>
   <vehicle id="civilian_6302" type="civilian" depart="92.91211196627262">
      <route edges="E2C C2W"/>
   </vehicle>
   <vehicle id="civilian_1293" type="civilian" depart="94.14984245748386">
      <route edges="E2C C2S"/>
   </vehicle>
   <vehicle id="civilian_8691" type="civilian" depart="94.19038765257399">
      <route edges="S2C C2W"/>
   </vehicle>
   <vehicle id="civilian_25" type="civilian" depart="94.82506737280305">
      <route edges="N2C C2W"/>
   </vehicle>
   <vehicle id="civilian_2914" type="civilian" depart="95.22022242704828">
      <route edges="N2C C2S"/>
   </vehicle>
   <vehicle id="civilian_2537" type="civilian" depart="96.46712579333743">
      <route edges="N2C C2E"/>
   </vehicle>
   <vehicle id="civilian_6541" type="civilian" depart="97.3503251852498">
      <route edges="W2C C2N"/>
   </vehicle>
   <vehicle id="civilian_9108" type="civilian" depart="99.2296646986679">
      <route edges="E2C C2N"/>
   </vehicle>
   <vehicle id="emergency_22" type="emergency" depart="100.74276513677496">
      <route edges="W2C C2N"/>
   </vehicle>
   <vehicle id="civilian_537" type="civilian" depart="101.29335458852947">
      <route edges="E2C C2N"/>
   </vehicle>
   <vehicle id="civilian_4600" type="civilian" depart="103.01842769263115">
      <route edges="S2C C2E"/>
   </vehicle>
   <vehicle id="civilian_322" type="civilian" depart="106.15633336532655">
      <route edges="N2C C2E"/>
   </vehicle>
   <vehicle id="emergency_1382" type="emergency" depart="107.1457639788779">
      <route edges="E2C C2S"/>
   </vehicle>
   <vehicle id="civilian_9896" type="civilian" depart="108.66782431230489">
      <route edges="E2C C2N"/>
   </vehicle>
   <vehicle id="civilian_3229" type="civilian" depart="108.70393674401467">
      <route edges="S2C C2E"/>
   </vehicle>
   <vehicle id="civilian_3597" type="civilian" depart="109.62566836666116">
      <route edges="S2C C2N"/>
   </vehicle>
   <vehicle id="civilian_1886" type="civilian" depart="109.95457824192565">
      <route edges="N2C C2W"/>
   </vehicle>
   <vehicle id="civilian_3904" type="civilian" depart="110.55997551342412">
      <route edges="N2C C2S"/>
   </vehicle>
   <vehicle id="emergency_230" type="emergency" depart="111.27578232021986">
      <route edges="N2C C2S"/>
   </vehicle>
   <vehicle id="civilian_9405" type="civilian" depart="111.38653493564767">
      <route edges="E2C C2S"/>
   </vehicle>
   <vehicle id="civilian_3240" type="civilian" depart="111.55269706042637">
      <route edges="W2C C2N"/>
   </vehicle>
   <vehicle id="civilian_2325" type="civilian" depart="111.95882484087446">
      <route edges="E2C C2S"/>
   </vehicle>
   <vehicle id="civilian_4067" type="civilian" depart="112.89623572990538">
      <route edges="N2C C2W"/>
   </vehicle>
   <vehicle id="emergency_980" type="emergency" depart="113.68450611975913">
      <route edges="N2C C2E"/>
   </vehicle>
   <vehicle id="civilian_3246" type="civilian" depart="115.24866597516822">
      <route edges="N2C C2W"/>
   </vehicle>
   <vehicle id="civilian_8749" type="civilian" depart="116.18274346927748">
      <route edges="N2C C2E"/>
   </vehicle>
   <vehicle id="civilian_9869" type="civilian" depart="116.49036262181713">
      <route edges="N2C C2S"/>
   </vehicle>
   <vehicle id="civilian_3545" type="civilian" depart="116.50972445125527">
      <route edges="E2C C2S"/>
   </vehicle>
   <vehicle id="civilian_6157" type="civilian" depart="116.91301785485253">
      <route edges="W2C C2S"/>
   </vehicle>
   <vehicle id="civilian_6719" type="civilian" depart="117.20927380174535">
      <route edges="N2C C2E"/>
   </vehicle>
   <vehicle id="civilian_28" type="civilian" depart="117.47790749886508">
      <route edges="E2C C2W"/>
   </vehicle>
   <vehicle id="civilian_9187" type="civilian" depart="119.64446058985149">
      <route edges="E2C C2W"/>
   </vehicle>
   <vehicle id="civilian_4241" type="civilian" depart="119.67138768216739">
      <route edges="W2C C2E"/>
   </vehicle>
   <vehicle id="civilian_2741" type="civilian" depart="119.73831962506027">
      <route edges="E2C C2N"/>
   </vehicle>
   <vehicle id="emergency_1033" type="emergency" depart="119.74092243301062">
      <route edges="N2C C2S"/>
   </vehicle>
   <vehicle id="civilian_2620" type="civilian" depart="120.30996931436357">
      <route edges="N2C C2W"/>
   </vehicle>
   <vehicle id="civilian_594" type="civilian" depart="120.62762196442964">
      <route edges="N2C C2W"/>
   </vehicle>
   <vehicle id="civilian_9467" type="civilian" depart="120.98861709199475">
      <route edges="S2C C2N"/>
   </vehicle>
   <vehicle id="civilian_6375" type="civilian" depart="122.5561720985941">
      <route edges="E2C C2S"/>
   </vehicle>
   <vehicle id="civilian_2851" type="civilian" depart="122.72249783508977">
      <route edges="N2C C2W"/>
   </vehicle>
   <vehicle id="emergency_1720" type="emergency" depart="122.83278828200952">
      <route edges="S2C C2N"/>
   </vehicle>
   <vehicle id="civilian_8502" type="civilian" depart="122.92421403445371">
      <route edges="N2C C2W"/>
   </vehicle>
   <vehicle id="civilian_5955" type="civilian" depart="123.70579369625699">
      <route edges="E2C C2S"/>
   </vehicle>
   <vehicle id="civilian_5229" type="civilian" depart="123.81002113717736">
      <route edges="S2C C2W"/>
   </vehicle>
   <vehicle id="emergency_1860" type="emergency" depart="124.0531371589785">
      <route edges="E2C C2S"/>
   </vehicle>
   <vehicle id="civilian_7203" type="civilian" depart="124.125092447591">
      <route edges="S2C C2W"/>
   </vehicle>
   <vehicle id="civilian_3403" type="civilian" depart="125.00308142118178">
      <route edges="N2C C2S"/>
   </vehicle>
   <vehicle id="civilian_7139" type="civilian" depart="127.37352652694396">
      <route edges="S2C C2W"/>
   </vehicle>
   <vehicle id="emergency_1559" type="emergency" depart="128.2678600363714">
      <route edges="E2C C2S"/>
   </vehicle>
   <vehicle id="civilian_5745" type="civilian" depart="128.776277209833">
      <route edges="W2C C2N"/>
   </vehicle>
   <vehicle id="civilian_3735" type="civilian" depart="129.0066561141736">
      <route edges="S2C C2E"/>
   </vehicle>
   <vehicle id="civilian_9095" type="civilian" depart="129.0275228955652">
      <route edges="E2C C2N"/>
   </vehicle>
   <vehicle id="emergency_950" type="emergency" depart="129.98471151900472">
      <route edges="E2C C2W"/>
   </vehicle>
   <vehicle id="civilian_6736" type="civilian" depart="131.0030793743624">
      <route edges="N2C C2W"/>
   </vehicle>
   <vehicle id="civilian_4385" type="civilian" depart="131.0990922283593">
      <route edges="S2C C2E"/>
   </vehicle>
   <vehicle id="civilian_4353" type="civilian" depart="131.13424410118864">
      <route edges="W2C C2N"/>
   </vehicle>
   <vehicle id="civilian_4106" type="civilian" depart="131.3168936880709">
      <route edges="W2C C2N"/>
   </vehicle>
   <vehicle id="civilian_11" type="civilian" depart="131.72696992725815">
      <route edges="E2C C2S"/>
   </vehicle>
   <vehicle id="civilian_7824" type="civilian" depart="131.7336821238583">
      <route edges="E2C C2S"/>
   </vehicle>
   <vehicle id="civilian_7986" type="civilian" depart="133.20645929464686">
      <route edges="N2C C2S"/>
   </vehicle>
   <vehicle id="civilian_5420" type="civilian" depart="133.63705025952112">
      <route edges="S2C C2E"/>
   </vehicle>
   <vehicle id="civilian_7784" type="civilian" depart="134.82572645562402">
      <route edges="N2C C2W"/>
   </vehicle>
   <vehicle id="civilian_7882" type="civilian" depart="135.1295328008714">
      <route edges="E2C C2N"/>
   </vehicle>
   <vehicle id="emergency_361" type="emergency" depart="136.57282879351044">
      <route edges="N2C C2W"/>
   </vehicle>
   <vehicle id="civilian_2254" type="civilian" depart="137.32482232847366">
      <route edges="S2C C2W"/>
   </vehicle>
   <vehicle id="civilian_9926" type="civilian" depart="137.66173928503935">
      <route edges="W2C C2N"/>
   </vehicle>
   <vehicle id="civilian_2978" type="civilian" depart="137.80557447700826">
      <route edges="N2C C2S"/>
   </vehicle>
   <vehicle id="civilian_6113" type="civilian" depart="137.80609302292487">
      <route edges="E2C C2N"/>
   </vehicle>
   <vehicle id="civilian_6613" type="civilian" depart="138.6263944330503">
      <route edges="E2C C2W"/>
   </vehicle>
   <vehicle id="civilian_3619" type="civilian" depart="139.20390083638335">
      <route edges="E2C C2N"/>
   </vehicle>
   <vehicle id="civilian_4816" type="civilian" depart="140.99809898448027">
      <route edges="S2C C2N"/>
   </vehicle>
   <vehicle id="civilian_5143" type="civilian" depart="141.3277757619281">
      <route edges="E2C C2W"/>
   </vehicle>
   <vehicle id="civilian_9490" type="civilian" depart="141.36565748358203">
      <route edges="N2C C2W"/>
   </vehicle>
   <vehicle id="emergency_476" type="emergency" depart="141.43764322695188">
      <route edges="N2C C2W"/>
   </vehicle>
   <vehicle id="civilian_9049" type="civilian" depart="141.4433201949775">
      <route edges="S2C C2E"/>
   </vehicle>
   <vehicle id="civilian_3196" type="civilian" depart="143.04000707933656">
      <route edges="W2C C2E"/>
   </vehicle>
   <vehicle id="civilian_6112" type="civilian" depart="143.9438935830581">
      <route edges="E2C C2W"/>
   </vehicle>
   <vehicle id="civilian_9104" type="civilian" depart="143.94841447335543">
      <route edges="S2C C2N"/>
   </vehicle>
   <vehicle id="emergency_1347" type="emergency" depart="144.0787765681937">
      <route edges="W2C C2S"/>
   </vehicle>
   <vehicle id="civilian_2283" type="civilian" depart="144.30130276737768">
      <route edges="N2C C2E"/>
   </vehicle>
   <vehicle id="civilian_2026" type="civilian" depart="144.4067412524526">
      <route edges="E2C C2W"/>
   </vehicle>
   <vehicle id="civilian_1943" type="civilian" depart="144.42029718765016">
      <route edges="E2C C2S"/>
   </vehicle>
   <vehicle id="civilian_7638" type="civilian" depart="144.7612065897772">
      <route edges="W2C C2N"/>
   </vehicle>
   <vehicle id="civilian_5461" type="civilian" depart="146.2069087084287">
      <route edges="E2C C2N"/>
   </vehicle>
   <vehicle id="civilian_8203" type="civilian" depart="147.6237578676521">
      <route edges="N2C C2S"/>
   </vehicle>
   <vehicle id="civilian_3507" type="civilian" depart="148.87394355735353">
      <route edges="W2C C2E"/>
   </vehicle>
   <vehicle id="emergency_1896" type="emergency" depart="149.41021334283812">
      <route edges="E2C C2W"/>
   </vehicle>
   <vehicle id="civilian_7928" type="civilian" depart="149.42336830417204">
      <route edges="W2C C2S"/>
   </vehicle>
   <vehicle id="civilian_6798" type="civilian" depart="150.27388782442924">
      <route edges="W2C C2S"/>
   </vehicle>
   <vehicle id="civilian_2040" type="civilian" depart="150.5766727125449">
      <route edges="N2C C2S"/>
   </vehicle>
   <vehicle id="civilian_4253" type="civilian" depart="150.837994331102">
      <route edges="E2C C2N"/>
   </vehicle>
   <vehicle id="civilian_2141" type="civilian" depart="150.9557606817861">
      <route edges="W2C C2N"/>
   </vehicle>
   <vehicle id="civilian_6983" type="civilian" depart="154.254978723735">
      <route edges="S2C C2N"/>
   </vehicle>
   <vehicle id="civilian_2814" type="civilian" depart="156.2447200074357">
      <route edges="W2C C2N"/>
   </vehicle>
   <vehicle id="civilian_5683" type="civilian" depart="158.5236473575833">
      <route edges="E2C C2W"/>
   </vehicle>
   <vehicle id="civilian_6999" type="civilian" depart="158.8973432253855">
      <route edges="N2C C2W"/>
   </vehicle>
   <vehicle id="civilian_3756" type="civilian" depart="159.0307556119101">
      <route edges="W2C C2S"/>
   </vehicle>
   <vehicle id="civilian_7839" type="civilian" depart="159.77044090694727">
      <route edges="W2C C2S"/>
   </vehicle>
   <vehicle id="emergency_165" type="emergency" depart="159.94001557814144">
      <route edges="S2C C2N"/>
   </vehicle>
   <vehicle id="civilian_6348" type="civilian" depart="160.46961710703317">
      <route edges="N2C C2W"/>
   </vehicle>
   <vehicle id="civilian_9841" type="civilian" depart="160.5732360847785">
      <route edges="E2C C2S"/>
   </vehicle>
   <vehicle id="civilian_4474" type="civilian" depart="161.93475860227312">
      <route edges="S2C C2E"/>
   </vehicle>
   <vehicle id="civilian_1828" type="civilian" depart="162.17510476316903">
      <route edges="N2C C2S"/>
   </vehicle>
   <vehicle id="civilian_4679" type="civilian" depart="162.35504032455657">
      <route edges="S2C C2N"/>
   </vehicle>
   <vehicle id="civilian_9010" type="civilian" depart="162.67517758606962">
      <route edges="S2C C2W"/>
   </vehicle>
   <vehicle id="civilian_2099" type="civilian" depart="163.13436574354904">
      <route edges="W2C C2E"/>
   </vehicle>
   <vehicle id="civilian_3596" type="civilian" depart="164.6592521839481">
      <route edges="N2C C2E"/>
   </vehicle>
   <vehicle id="emergency_1990" type="emergency" depart="165.1545184415524">
      <route edges="E2C C2W"/>
   </vehicle>
   <vehicle id="emergency_126" type="emergency" depart="165.44562212852236">
      <route edges="N2C C2E"/>
   </vehicle>
   <vehicle id="civilian_5968" type="civilian" depart="166.80629295845836">
      <route edges="E2C C2S"/>
   </vehicle>
   <vehicle id="civilian_1746" type="civilian" depart="167.93251898456197">
      <route edges="E2C C2N"/>
   </vehicle>
   <vehicle id="civilian_8671" type="civilian" depart="168.81995451147472">
      <route edges="S2C C2N"/>
   </vehicle>
   <vehicle id="civilian_8508" type="civilian" depart="168.85267363665113">
      <route edges="S2C C2E"/>
   </vehicle>
   <vehicle id="civilian_8958" type="civilian" depart="169.79016671608457">
      <route edges="S2C C2E"/>
   </vehicle>
   <vehicle id="civilian_1407" type="civilian" depart="171.13943657925282">
      <route edges="S2C C2W"/>
   </vehicle>
   <vehicle id="emergency_409" type="emergency" depart="171.8874421035718">
      <route edges="W2C C2N"/>
   </vehicle>
   <vehicle id="civilian_5934" type="civilian" depart="176.34883908357085">
      <route edges="N2C C2S"/>
   </vehicle>
   <vehicle id="civilian_4194" type="civilian" depart="176.4349860231455">
      <route edges="W2C C2E"/>
   </vehicle>
   <vehicle id="emergency_1752" type="emergency" depart="177.22559017461748">
      <route edges="E2C C2N"/>
   </vehicle>
   <vehicle id="civilian_467" type="civilian" depart="177.4317317139148">
      <route edges="W2C C2S"/>
   </vehicle>
   <vehicle id="civilian_3666" type="civilian" depart="178.27549189956554">
      <route edges="E2C C2S"/>
   </vehicle>
   <vehicle id="civilian_5466" type="civilian" depart="178.57278532062412">
      <route edges="S2C C2W"/>
   </vehicle>
   <vehicle id="civilian_4495" type="civilian" depart="178.86278731871812">
      <route edges="E2C C2W"/>
   </vehicle>
   <vehicle id="civilian_4175" type="civilian" depart="180.14392638521883">
      <route edges="N2C C2W"/>
   </vehicle>
   <vehicle id="civilian_3774" type="civilian" depart="180.56076285905337">
      <route edges="N2C C2E"/>
   </vehicle>