<?xml version="1.0" encoding="UTF-8"?>

<!-- generated on 2025-11-05 00:21:41 by Eclipse SUMO netedit Version 1.24.0
<neteditConfiguration xmlns:xsi="http://www.w3.org/2001/XMLSchema-instance" xsi:noNamespaceSchemaLocation="http://sumo.dlr.de/xsd/neteditConfiguration.xsd">

    <input>
        <sumo-net-file value="C:\Users\shubh\Documents\T40-RL-Based-Smart-Traffic-Light-System-for-Emergency-Response\data\networks\intersection.net.xml"/>
    </input>

    <output>
        <output-file value="C:\Users\shubh\Documents\T40-RL-Based-Smart-Traffic-Light-System-for-Emergency-Response\data\networks\intersection.net.xml"/>
    </output>

    <processing>
        <offset.disable-normalization value="true"/>
    </processing>

    <junctions>
        <no-turnarounds value="true"/>
    </junctions>

    <netedit>
        <new-network value="false"/>
    </netedit>

</neteditConfiguration>
-->

<net version="1.20" junctionCornerDetail="5" limitTurnSpeed="5.50" xmlns:xsi="http://www.w3.org/2001/XMLSchema-instance" xsi:noNamespaceSchemaLocation="http://sumo.dlr.de/xsd/net_file.xsd">

    <location netOffset="0.00,0.00" convBoundary="-600.00,-600.00,600.00,600.00" origBoundary="10000000000.00,10000000000.00,-10000000000.00,-10000000000.00" projParameter="!"/>

    <edge id=":Ayodhya_0" function="internal">
        <lane id=":Ayodhya_0_0" index="0" speed="6.51" length="9.03" shape="-11.20,-283.20 -11.55,-285.65 -12.60,-287.40 -14.35,-288.45 -16.80,-288.80"/>
    </edge>
    <edge id=":Ayodhya_1" function="internal">
        <lane id=":Ayodhya_1_0" index="0" speed="13.89" length="33.60" shape="-11.20,-283.20 -11.20,-316.80"/>
        <lane id=":Ayodhya_1_1" index="1" speed="13.89" length="33.60" shape="-8.00,-283.20 -8.00,-316.80"/>
        <lane id=":Ayodhya_1_2" index="2" speed="13.89" length="33.60" shape="-4.80,-283.20 -4.80,-316.80"/>
        <lane id=":Ayodhya_1_3" index="3" speed="13.89" length="33.60" shape="-1.60,-283.20 -1.60,-316.80"/>
    </edge>
    <edge id=":Ayodhya_5" function="internal">
        <lane id=":Ayodhya_5_0" index="0" speed="11.36" length="5.01" shape="-1.60,-283.20 -0.89,-288.16"/>
    </edge>
    <edge id=":Ayodhya_24" function="internal">
        <lane id=":Ayodhya_24_0" index="0" speed="11.36" length="24.66" shape="-0.89,-288.16 -0.45,-291.25 3.00,-297.00 8.75,-300.45 16.80,-301.60"/>
    </edge>
    <edge id=":Ayodhya_6" function="internal">
        <lane id=":Ayodhya_6_0" index="0" speed="6.51" length="9.03" shape="16.80,-288.80 14.35,-288.45 12.60,-287.40 11.55,-285.65 11.20,-283.20"/>
    </edge>
    <edge id=":Ayodhya_7" function="internal">
        <lane id=":Ayodhya_7_0" index="0" speed="13.89" length="33.60" shape="16.80,-288.80 -16.80,-288.80"/>
        <lane id=":Ayodhya_7_1" index="1" speed="13.89" length="33.60" shape="16.80,-292.00 -16.80,-292.00"/>
        <lane id=":Ayodhya_7_2" index="2" speed="13.89" length="33.60" shape="16.80,-295.20 -16.80,-295.20"/>
        <lane id=":Ayodhya_7_3" index="3" speed="13.89" length="33.60" shape="16.80,-298.40 -16.80,-298.40"/>
    </edge>
    <edge id=":Ayodhya_11" function="internal">
        <lane id=":Ayodhya_11_0" index="0" speed="11.36" length="5.01" shape="16.80,-298.40 11.84,-299.11"/>
    </edge>
    <edge id=":Ayodhya_25" function="internal">
        <lane id=":Ayodhya_25_0" index="0" speed="11.36" length="24.66" shape="11.84,-299.11 8.75,-299.55 3.00,-303.00 -0.45,-308.75 -1.60,-316.80"/>
    </edge>
    <edge id=":Ayodhya_12" function="internal">
        <lane id=":Ayodhya_12_0" index="0" speed="6.51" length="9.03" shape="11.20,-316.80 11.55,-314.35 12.60,-312.60 14.35,-311.55 16.80,-311.20"/>
    </edge>
    <edge id=":Ayodhya_13" function="internal">
        <lane id=":Ayodhya_13_0" index="0" speed="13.89" length="33.60" shape="11.20,-316.80 11.20,-283.20"/>
        <lane id=":Ayodhya_13_1" index="1" speed="13.89" length="33.60" shape="8.00,-316.80 8.00,-283.20"/>
        <lane id=":Ayodhya_13_2" index="2" speed="13.89" length="33.60" shape="4.80,-316.80 4.80,-283.20"/>
        <lane id=":Ayodhya_13_3" index="3" speed="13.89" length="33.60" shape="1.60,-316.80 1.60,-283.20"/>
    </edge>
    <edge id=":Ayodhya_17" function="internal">
        <lane id=":Ayodhya_17_0" index="0" speed="11.36" length="5.01" shape="1.60,-316.80 0.89,-311.84"/>
    </edge>
    <edge id=":Ayodhya_26" function="internal">
        <lane id=":Ayodhya_26_0" index="0" speed="11.36" length="24.66" shape="0.89,-311.84 0.45,-308.75 -3.00,-303.00 -8.75,-299.55 -16.80,-298.40"/>
    </edge>
    <edge id=":Ayodhya_18" function="internal">
        <lane id=":Ayodhya_18_0" index="0" speed="6.51" length="9.03" shape="-16.80,-311.20 -14.35,-311.55 -12.60,-312.60 -11.55,-314.35 -11.20,-316.80"/>
    </edge>
    <edge id=":Ayodhya_19" function="internal">
        <lane id=":Ayodhya_19_0" index="0" speed="13.89" length="33.60" shape="-16.80,-311.20 16.80,-311.20"/>
        <lane id=":Ayodhya_19_1" index="1" speed="13.89" length="33.60" shape="-16.80,-308.00 16.80,-308.00"/>
        <lane id=":Ayodhya_19_2" index="2" speed="13.89" length="33.60" shape="-16.80,-304.80 16.80,-304.80"/>
        <lane id=":Ayodhya_19_3" index="3" speed="13.89" length="33.60" shape="-16.80,-301.60 16.80,-301.60"/>
    </edge>
    <edge id=":Ayodhya_23" function="internal">
        <lane id=":Ayodhya_23_0" index="0" speed="11.36" length="5.01" shape="-16.80,-301.60 -11.84,-300.89"/>
    </edge>
    <edge id=":Ayodhya_27" function="internal">
        <lane id=":Ayodhya_27_0" index="0" speed="11.36" length="24.66" shape="-11.84,-300.89 -8.75,-300.45 -3.00,-297.00 0.45,-291.25 1.60,-283.20"/>
    </edge>
    <edge id=":Badrinath_0" function="internal">
        <lane id=":Badrinath_0_0" index="0" speed="6.51" length="9.03" shape="-311.20,316.80 -311.55,314.35 -312.60,312.60 -314.35,311.55 -316.80,311.20"/>
    </edge>
    <edge id=":Badrinath_1" function="internal">
        <lane id=":Badrinath_1_0" index="0" speed="13.89" length="33.60" shape="-311.20,316.80 -311.20,283.20"/>
        <lane id=":Badrinath_1_1" index="1" speed="13.89" length="33.60" shape="-308.00,316.80 -308.00,283.20"/>
        <lane id=":Badrinath_1_2" index="2" speed="13.89" length="33.60" shape="-304.80,316.80 -304.80,283.20"/>
        <lane id=":Badrinath_1_3" index="3" speed="13.89" length="33.60" shape="-301.60,316.80 -301.60,283.20"/>
    </edge>
    <edge id=":Badrinath_5" function="internal">
        <lane id=":Badrinath_5_0" index="0" speed="11.36" length="5.01" shape="-301.60,316.80 -300.89,311.84"/>
    </edge>
    <edge id=":Badrinath_24" function="internal">
        <lane id=":Badrinath_24_0" index="0" speed="11.36" length="24.66" shape="-300.89,311.84 -300.45,308.75 -297.00,303.00 -291.25,299.55 -283.20,298.40"/>
    </edge>
    <edge id=":Badrinath_6" function="internal">
        <lane id=":Badrinath_6_0" index="0" speed="6.51" length="9.03" shape="-283.20,311.20 -285.65,311.55 -287.40,312.60 -288.45,314.35 -288.80,316.80"/>
    </edge>
    <edge id=":Badrinath_7" function="internal">
        <lane id=":Badrinath_7_0" index="0" speed="13.89" length="33.60" shape="-283.20,311.20 -316.80,311.20"/>
        <lane id=":Badrinath_7_1" index="1" speed="13.89" length="33.60" shape="-283.20,308.00 -316.80,308.00"/>
        <lane id=":Badrinath_7_2" index="2" speed="13.89" length="33.60" shape="-283.20,304.80 -316.80,304.80"/>
        <lane id=":Badrinath_7_3" index="3" speed="13.89" length="33.60" shape="-283.20,301.60 -316.80,301.60"/>
    </edge>
    <edge id=":Badrinath_11" function="internal">
        <lane id=":Badrinath_11_0" index="0" speed="11.36" length="5.01" shape="-283.20,301.60 -288.16,300.89"/>
    </edge>
    <edge id=":Badrinath_25" function="internal">
        <lane id=":Badrinath_25_0" index="0" speed="11.36" length="24.66" shape="-288.16,300.89 -291.25,300.45 -297.00,297.00 -300.45,291.25 -301.60,283.20"/>
    </edge>
    <edge id=":Badrinath_12" function="internal">
        <lane id=":Badrinath_12_0" index="0" speed="6.51" length="9.03" shape="-288.80,283.20 -288.45,285.65 -287.40,287.40 -285.65,288.45 -283.20,288.80"/>
    </edge>
    <edge id=":Badrinath_13" function="internal">
        <lane id=":Badrinath_13_0" index="0" speed="13.89" length="33.60" shape="-288.80,283.20 -288.80,316.80"/>
        <lane id=":Badrinath_13_1" index="1" speed="13.89" length="33.60" shape="-292.00,283.20 -292.00,316.80"/>
        <lane id=":Badrinath_13_2" index="2" speed="13.89" length="33.60" shape="-295.20,283.20 -295.20,316.80"/>
        <lane id=":Badrinath_13_3" index="3" speed="13.89" length="33.60" shape="-298.40,283.20 -298.40,316.80"/>
    </edge>
    <edge id=":Badrinath_17" function="internal">
        <lane id=":Badrinath_17_0" index="0" speed="11.36" length="5.01" shape="-298.40,283.20 -299.11,288.16"/>
    </edge>
    <edge id=":Badrinath_26" function="internal">
        <lane id=":Badrinath_26_0" index="0" speed="11.36" length="24.66" shape="-299.11,288.16 -299.55,291.25 -303.00,297.00 -308.75,300.45 -316.80,301.60"/>
    </edge>
    <edge id=":Badrinath_18" function="internal">
        <lane id=":Badrinath_18_0" index="0" speed="6.51" length="9.03" shape="-316.80,288.80 -314.35,288.45 -312.60,287.40 -311.55,285.65 -311.20,283.20"/>
    </edge>
    <edge id=":Badrinath_19" function="internal">
        <lane id=":Badrinath_19_0" index="0" speed="13.89" length="33.60" shape="-316.80,288.80 -283.20,288.80"/>
        <lane id=":Badrinath_19_1" index="1" speed="13.89" length="33.60" shape="-316.80,292.00 -283.20,292.00"/>
        <lane id=":Badrinath_19_2" index="2" speed="13.89" length="33.60" shape="-316.80,295.20 -283.20,295.20"/>
        <lane id=":Badrinath_19_3" index="3" speed="13.89" length="33.60" shape="-316.80,298.40 -283.20,298.40"/>
    </edge>
    <edge id=":Badrinath_23" function="internal">
        <lane id=":Badrinath_23_0" index="0" speed="11.36" length="5.01" shape="-316.80,298.40 -311.84,299.11"/>
    </edge>
    <edge id=":Badrinath_27" function="internal">
        <lane id=":Badrinath_27_0" index="0" speed="11.36" length="24.66" shape="-311.84,299.11 -308.75,299.55 -303.00,303.00 -299.55,308.75 -298.40,316.80"/>
    </edge>
    <edge id=":BrajVrindavan_0" function="internal">
        <lane id=":BrajVrindavan_0_0" index="0" speed="6.51" length="9.03" shape="-11.20,16.80 -11.55,14.35 -12.60,12.60 -14.35,11.55 -16.80,11.20"/>
    </edge>
    <edge id=":BrajVrindavan_1" function="internal">
        <lane id=":BrajVrindavan_1_0" index="0" speed="13.89" length="33.60" shape="-11.20,16.80 -11.20,-16.80"/>
        <lane id=":BrajVrindavan_1_1" index="1" speed="13.89" length="33.60" shape="-8.00,16.80 -8.00,-16.80"/>
        <lane id=":BrajVrindavan_1_2" index="2" speed="13.89" length="33.60" shape="-4.80,16.80 -4.80,-16.80"/>
        <lane id=":BrajVrindavan_1_3" index="3" speed="13.89" length="33.60" shape="-1.60,16.80 -1.60,-16.80"/>
    </edge>
    <edge id=":BrajVrindavan_5" function="internal">
        <lane id=":BrajVrindavan_5_0" index="0" speed="11.36" length="5.01" shape="-1.60,16.80 -0.89,11.84"/>
    </edge>
    <edge id=":BrajVrindavan_24" function="internal">
        <lane id=":BrajVrindavan_24_0" index="0" speed="11.36" length="24.66" shape="-0.89,11.84 -0.45,8.75 3.00,3.00 8.75,-0.45 16.80,-1.60"/>
    </edge>
    <edge id=":BrajVrindavan_6" function="internal">
        <lane id=":BrajVrindavan_6_0" index="0" speed="6.51" length="9.03" shape="16.80,11.20 14.35,11.55 12.60,12.60 11.55,14.35 11.20,16.80"/>
    </edge>
    <edge id=":BrajVrindavan_7" function="internal">
        <lane id=":BrajVrindavan_7_0" index="0" speed="13.89" length="33.60" shape="16.80,11.20 -16.80,11.20"/>
        <lane id=":BrajVrindavan_7_1" index="1" speed="13.89" length="33.60" shape="16.80,8.00 -16.80,8.00"/>
        <lane id=":BrajVrindavan_7_2" index="2" speed="13.89" length="33.60" shape="16.80,4.80 -16.80,4.80"/>
        <lane id=":BrajVrindavan_7_3" index="3" speed="13.89" length="33.60" shape="16.80,1.60 -16.80,1.60"/>
    </edge>
    <edge id=":BrajVrindavan_11" function="internal">
        <lane id=":BrajVrindavan_11_0" index="0" speed="11.36" length="5.01" shape="16.80,1.60 11.84,0.89"/>
    </edge>
    <edge id=":BrajVrindavan_25" function="internal">
        <lane id=":BrajVrindavan_25_0" index="0" speed="11.36" length="24.66" shape="11.84,0.89 8.75,0.45 3.00,-3.00 -0.45,-8.75 -1.60,-16.80"/>
    </edge>
    <edge id=":BrajVrindavan_12" function="internal">
        <lane id=":BrajVrindavan_12_0" index="0" speed="6.51" length="9.03" shape="11.20,-16.80 11.55,-14.35 12.60,-12.60 14.35,-11.55 16.80,-11.20"/>
    </edge>
    <edge id=":BrajVrindavan_13" function="internal">
        <lane id=":BrajVrindavan_13_0" index="0" speed="13.89" length="33.60" shape="11.20,-16.80 11.20,16.80"/>
        <lane id=":BrajVrindavan_13_1" index="1" speed="13.89" length="33.60" shape="8.00,-16.80 8.00,16.80"/>
        <lane id=":BrajVrindavan_13_2" index="2" speed="13.89" length="33.60" shape="4.80,-16.80 4.80,16.80"/>
        <lane id=":BrajVrindavan_13_3" index="3" speed="13.89" length="33.60" shape="1.60,-16.80 1.60,16.80"/>
    </edge>
    <edge id=":BrajVrindavan_17" function="internal">
        <lane id=":BrajVrindavan_17_0" index="0" speed="11.36" length="5.01" shape="1.60,-16.80 0.89,-11.84"/>
    </edge>
    <edge id=":BrajVrindavan_26" function="internal">
        <lane id=":BrajVrindavan_26_0" index="0" speed="11.36" length="24.66" shape="0.89,-11.84 0.45,-8.75 -3.00,-3.00 -8.75,0.45 -16.80,1.60"/>
    </edge>
    <edge id=":BrajVrindavan_18" function="internal">
        <lane id=":BrajVrindavan_18_0" index="0" speed="6.51" length="9.03" shape="-16.80,-11.20 -14.35,-11.55 -12.60,-12.60 -11.55,-14.35 -11.20,-16.80"/>
    </edge>
    <edge id=":BrajVrindavan_19" function="internal">
        <lane id=":BrajVrindavan_19_0" index="0" speed="13.89" length="33.60" shape="-16.80,-11.20 16.80,-11.20"/>
        <lane id=":BrajVrindavan_19_1" index="1" speed="13.89" length="33.60" shape="-16.80,-8.00 16.80,-8.00"/>
        <lane id=":BrajVrindavan_19_2" index="2" speed="13.89" length="33.60" shape="-16.80,-4.80 16.80,-4.80"/>
        <lane id=":BrajVrindavan_19_3" index="3" speed="13.89" length="33.60" shape="-16.80,-1.60 16.80,-1.60"/>
    </edge>
    <edge id=":BrajVrindavan_23" function="internal">
        <lane id=":BrajVrindavan_23_0" index="0" speed="11.36" length="5.01" shape="-16.80,-1.60 -11.84,-0.89"/>
    </edge>
    <edge id=":BrajVrindavan_27" function="internal">
        <lane id=":BrajVrindavan_27_0" index="0" speed="11.36" length="24.66" shape="-11.84,-0.89 -8.75,-0.45 -3.00,3.00 0.45,8.75 1.60,16.80"/>
    </edge>
    <edge id=":Dwarika_0" function="internal">
        <lane id=":Dwarika_0_0" index="0" speed="6.51" length="9.03" shape="288.80,16.80 288.45,14.35 287.40,12.60 285.65,11.55 283.20,11.20"/>
    </edge>
    <edge id=":Dwarika_1" function="internal">
        <lane id=":Dwarika_1_0" index="0" speed="13.89" length="33.60" shape="288.80,16.80 288.80,-16.80"/>
        <lane id=":Dwarika_1_1" index="1" speed="13.89" length="33.60" shape="292.00,16.80 292.00,-16.80"/>
        <lane id=":Dwarika_1_2" index="2" speed="13.89" length="33.60" shape="295.20,16.80 295.20,-16.80"/>
        <lane id=":Dwarika_1_3" index="3" speed="13.89" length="33.60" shape="298.40,16.80 298.40,-16.80"/>
    </edge>
    <edge id=":Dwarika_5" function="internal">
        <lane id=":Dwarika_5_0" index="0" speed="11.36" length="5.01" shape="298.40,16.80 299.11,11.84"/>
    </edge>
    <edge id=":Dwarika_24" function="internal">
        <lane id=":Dwarika_24_0" index="0" speed="11.36" length="24.66" shape="299.11,11.84 299.55,8.75 303.00,3.00 308.75,-0.45 316.80,-1.60"/>
    </edge>
    <edge id=":Dwarika_6" function="internal">
        <lane id=":Dwarika_6_0" index="0" speed="6.51" length="9.03" shape="316.80,11.20 314.35,11.55 312.60,12.60 311.55,14.35 311.20,16.80"/>
    </edge>
    <edge id=":Dwarika_7" function="internal">
        <lane id=":Dwarika_7_0" index="0" speed="13.89" length="33.60" shape="316.80,11.20 283.20,11.20"/>
        <lane id=":Dwarika_7_1" index="1" speed="13.89" length="33.60" shape="316.80,8.00 283.20,8.00"/>
        <lane id=":Dwarika_7_2" index="2" speed="13.89" length="33.60" shape="316.80,4.80 283.20,4.80"/>
        <lane id=":Dwarika_7_3" index="3" speed="13.89" length="33.60" shape="316.80,1.60 283.20,1.60"/>
    </edge>
    <edge id=":Dwarika_11" function="internal">
        <lane id=":Dwarika_11_0" index="0" speed="11.36" length="5.01" shape="316.80,1.60 311.84,0.89"/>
    </edge>
    <edge id=":Dwarika_25" function="internal">
        <lane id=":Dwarika_25_0" index="0" speed="11.36" length="24.66" shape="311.84,0.89 308.75,0.45 303.00,-3.00 299.55,-8.75 298.40,-16.80"/>
    </edge>
    <edge id=":Dwarika_12" function="internal">
        <lane id=":Dwarika_12_0" index="0" speed="6.51" length="9.03" shape="311.20,-16.80 311.55,-14.35 312.60,-12.60 314.35,-11.55 316.80,-11.20"/>
    </edge>
    <edge id=":Dwarika_13" function="internal">
        <lane id=":Dwarika_13_0" index="0" speed="13.89" length="33.60" shape="311.20,-16.80 311.20,16.80"/>
        <lane id=":Dwarika_13_1" index="1" speed="13.89" length="33.60" shape="308.00,-16.80 308.00,16.80"/>
        <lane id=":Dwarika_13_2" index="2" speed="13.89" length="33.60" shape="304.80,-16.80 304.80,16.80"/>
        <lane id=":Dwarika_13_3" index="3" speed="13.89" length="33.60" shape="301.60,-16.80 301.60,16.80"/>
    </edge>
    <edge id=":Dwarika_17" function="internal">
        <lane id=":Dwarika_17_0" index="0" speed="11.36" length="5.01" shape="301.60,-16.80 300.89,-11.84"/>
    </edge>
    <edge id=":Dwarika_26" function="internal">
        <lane id=":Dwarika_26_0" index="0" speed="11.36" length="24.66" shape="300.89,-11.84 300.45,-8.75 297.00,-3.00 291.25,0.45 283.20,1.60"/>
    </edge>
    <edge id=":Dwarika_18" function="internal">
        <lane id=":Dwarika_18_0" index="0" speed="6.51" length="9.03" shape="283.20,-11.20 285.65,-11.55 287.40,-12.60 288.45,-14.35 288.80,-16.80"/>
    </edge>
    <edge id=":Dwarika_19" function="internal">
        <lane id=":Dwarika_19_0" index="0" speed="13.89" length="33.60" shape="283.20,-11.20 316.80,-11.20"/>
        <lane id=":Dwarika_19_1" index="1" speed="13.89" length="33.60" shape="283.20,-8.00 316.80,-8.00"/>
        <lane id=":Dwarika_19_2" index="2" speed="13.89" length="33.60" shape="283.20,-4.80 316.80,-4.80"/>
        <lane id=":Dwarika_19_3" index="3" speed="13.89" length="33.60" shape="283.20,-1.60 316.80,-1.60"/>
    </edge>
    <edge id=":Dwarika_23" function="internal">
        <lane id=":Dwarika_23_0" index="0" speed="11.36" length="5.01" shape="283.20,-1.60 288.16,-0.89"/>
    </edge>
    <edge id=":Dwarika_27" function="internal">
        <lane id=":Dwarika_27_0" index="0" speed="11.36" length="24.66" shape="288.16,-0.89 291.25,-0.45 297.00,3.00 300.45,8.75 301.60,16.80"/>
    </edge>
    <edge id=":JagannathPuri_0" function="internal">
        <lane id=":JagannathPuri_0_0" index="0" speed="6.51" length="9.03" shape="288.80,-283.20 288.45,-285.65 287.40,-287.40 285.65,-288.45 283.20,-288.80"/>
    </edge>
    <edge id=":JagannathPuri_1" function="internal">
        <lane id=":JagannathPuri_1_0" index="0" speed="13.89" length="33.60" shape="288.80,-283.20 288.80,-316.80"/>
        <lane id=":JagannathPuri_1_1" index="1" speed="13.89" length="33.60" shape="292.00,-283.20 292.00,-316.80"/>
        <lane id=":JagannathPuri_1_2" index="2" speed="13.89" length="33.60" shape="295.20,-283.20 295.20,-316.80"/>
        <lane id=":JagannathPuri_1_3" index="3" speed="13.89" length="33.60" shape="298.40,-283.20 298.40,-316.80"/>
    </edge>
    <edge id=":JagannathPuri_5" function="internal">
        <lane id=":JagannathPuri_5_0" index="0" speed="11.36" length="5.01" shape="298.40,-283.20 299.11,-288.16"/>
    </edge>
    <edge id=":JagannathPuri_24" function="internal">
        <lane id=":JagannathPuri_24_0" index="0" speed="11.36" length="24.66" shape="299.11,-288.16 299.55,-291.25 303.00,-297.00 308.75,-300.45 316.80,-301.60"/>
    </edge>
    <edge id=":JagannathPuri_6" function="internal">
        <lane id=":JagannathPuri_6_0" index="0" speed="6.51" length="9.03" shape="316.80,-288.80 314.35,-288.45 312.60,-287.40 311.55,-285.65 311.20,-283.20"/>
    </edge>
    <edge id=":JagannathPuri_7" function="internal">
        <lane id=":JagannathPuri_7_0" index="0" speed="13.89" length="33.60" shape="316.80,-288.80 283.20,-288.80"/>
        <lane id=":JagannathPuri_7_1" index="1" speed="13.89" length="33.60" shape="316.80,-292.00 283.20,-292.00"/>
        <lane id=":JagannathPuri_7_2" index="2" speed="13.89" length="33.60" shape="316.80,-295.20 283.20,-295.20"/>
        <lane id=":JagannathPuri_7_3" index="3" speed="13.89" length="33.60" shape="316.80,-298.40 283.20,-298.40"/>
    </edge>
    <edge id=":JagannathPuri_11" function="internal">
        <lane id=":JagannathPuri_11_0" index="0" speed="11.36" length="5.01" shape="316.80,-298.40 311.84,-299.11"/>
    </edge>
    <edge id=":JagannathPuri_25" function="internal">
        <lane id=":JagannathPuri_25_0" index="0" speed="11.36" length="24.66" shape="311.84,-299.11 308.75,-299.55 303.00,-303.00 299.55,-308.75 298.40,-316.80"/>
    </edge>
    <edge id=":JagannathPuri_12" function="internal">
        <lane id=":JagannathPuri_12_0" index="0" speed="6.51" length="9.03" shape="311.20,-316.80 311.55,-314.35 312.60,-312.60 314.35,-311.55 316.80,-311.20"/>
    </edge>
    <edge id=":JagannathPuri_13" function="internal">
        <lane id=":JagannathPuri_13_0" index="0" speed="13.89" length="33.60" shape="311.20,-316.80 311.20,-283.20"/>
        <lane id=":JagannathPuri_13_1" index="1" speed="13.89" length="33.60" shape="308.00,-316.80 308.00,-283.20"/>
        <lane id=":JagannathPuri_13_2" index="2" speed="13.89" length="33.60" shape="304.80,-316.80 304.80,-283.20"/>
        <lane id=":JagannathPuri_13_3" index="3" speed="13.89" length="33.60" shape="301.60,-316.80 301.60,-283.20"/>
    </edge>
    <edge id=":JagannathPuri_17" function="internal">
        <lane id=":JagannathPuri_17_0" index="0" speed="11.36" length="5.01" shape="301.60,-316.80 300.89,-311.84"/>
    </edge>
    <edge id=":JagannathPuri_26" function="internal">
        <lane id=":JagannathPuri_26_0" index="0" speed="11.36" length="24.66" shape="300.89,-311.84 300.45,-308.75 297.00,-303.00 291.25,-299.55 283.20,-298.40"/>
    </edge>
    <edge id=":JagannathPuri_18" function="internal">
        <lane id=":JagannathPuri_18_0" index="0" speed="6.51" length="9.03" shape="283.20,-311.20 285.65,-311.55 287.40,-312.60 288.45,-314.35 288.80,-316.80"/>
    </edge>
    <edge id=":JagannathPuri_19" function="internal">
        <lane id=":JagannathPuri_19_0" index="0" speed="13.89" length="33.60" shape="283.20,-311.20 316.80,-311.20"/>
        <lane id=":JagannathPuri_19_1" index="1" speed="13.89" length="33.60" shape="283.20,-308.00 316.80,-308.00"/>
        <lane id=":JagannathPuri_19_2" index="2" speed="13.89" length="33.60" shape="283.20,-304.80 316.80,-304.80"/>
        <lane id=":JagannathPuri_19_3" index="3" speed="13.89" length="33.60" shape="283.20,-301.60 316.80,-301.60"/>
    </edge>
    <edge id=":JagannathPuri_23" function="internal">
        <lane id=":JagannathPuri_23_0" index="0" speed="11.36" length="5.01" shape="283.20,-301.60 288.16,-300.89"/>
    </edge>
    <edge id=":JagannathPuri_27" function="internal">
        <lane id=":JagannathPuri_27_0" index="0" speed="11.36" length="24.66" shape="288.16,-300.89 291.25,-300.45 297.00,-297.00 300.45,-291.25 301.60,-283.20"/>
    </edge>
    <edge id=":Kedarnath_0" function="internal">
        <lane id=":Kedarnath_0_0" index="0" speed="6.51" length="9.03" shape="288.80,316.80 288.45,314.35 287.40,312.60 285.65,311.55 283.20,311.20"/>
    </edge>
    <edge id=":Kedarnath_1" function="internal">
        <lane id=":Kedarnath_1_0" index="0" speed="13.89" length="33.60" shape="288.80,316.80 288.80,283.20"/>
        <lane id=":Kedarnath_1_1" index="1" speed="13.89" length="33.60" shape="292.00,316.80 292.00,283.20"/>
        <lane id=":Kedarnath_1_2" index="2" speed="13.89" length="33.60" shape="295.20,316.80 295.20,283.20"/>
        <lane id=":Kedarnath_1_3" index="3" speed="13.89" length="33.60" shape="298.40,316.80 298.40,283.20"/>
    </edge>
    <edge id=":Kedarnath_5" function="internal">
        <lane id=":Kedarnath_5_0" index="0" speed="11.36" length="5.01" shape="298.40,316.80 299.11,311.84"/>
    </edge>
    <edge id=":Kedarnath_24" function="internal">
        <lane id=":Kedarnath_24_0" index="0" speed="11.36" length="24.66" shape="299.11,311.84 299.55,308.75 303.00,303.00 308.75,299.55 316.80,298.40"/>
    </edge>
    <edge id=":Kedarnath_6" function="internal">
        <lane id=":Kedarnath_6_0" index="0" speed="6.51" length="9.03" shape="316.80,311.20 314.35,311.55 312.60,312.60 311.55,314.35 311.20,316.80"/>
    </edge>
    <edge id=":Kedarnath_7" function="internal">
        <lane id=":Kedarnath_7_0" index="0" speed="13.89" length="33.60" shape="316.80,311.20 283.20,311.20"/>
        <lane id=":Kedarnath_7_1" index="1" speed="13.89" length="33.60" shape="316.80,308.00 283.20,308.00"/>
        <lane id=":Kedarnath_7_2" index="2" speed="13.89" length="33.60" shape="316.80,304.80 283.20,304.80"/>
        <lane id=":Kedarnath_7_3" index="3" speed="13.89" length="33.60" shape="316.80,301.60 283.20,301.60"/>
    </edge>
    <edge id=":Kedarnath_11" function="internal">
        <lane id=":Kedarnath_11_0" index="0" speed="11.36" length="5.01" shape="316.80,301.60 311.84,300.89"/>
    </edge>
    <edge id=":Kedarnath_25" function="internal">
        <lane id=":Kedarnath_25_0" index="0" speed="11.36" length="24.66" shape="311.84,300.89 308.75,300.45 303.00,297.00 299.55,291.25 298.40,283.20"/>
    </edge>
    <edge id=":Kedarnath_12" function="internal">
        <lane id=":Kedarnath_12_0" index="0" speed="6.51" length="9.03" shape="311.20,283.20 311.55,285.65 312.60,287.40 314.35,288.45 316.80,288.80"/>
    </edge>
    <edge id=":Kedarnath_13" function="internal">
        <lane id=":Kedarnath_13_0" index="0" speed="13.89" length="33.60" shape="311.20,283.20 311.20,316.80"/>
        <lane id=":Kedarnath_13_1" index="1" speed="13.89" length="33.60" shape="308.00,283.20 308.00,316.80"/>
        <lane id=":Kedarnath_13_2" index="2" speed="13.89" length="33.60" shape="304.80,283.20 304.80,316.80"/>
        <lane id=":Kedarnath_13_3" index="3" speed="13.89" length="33.60" shape="301.60,283.20 301.60,316.80"/>
    </edge>
    <edge id=":Kedarnath_17" function="internal">
        <lane id=":Kedarnath_17_0" index="0" speed="11.36" length="5.01" shape="301.60,283.20 300.89,288.16"/>
    </edge>
    <edge id=":Kedarnath_26" function="internal">
        <lane id=":Kedarnath_26_0" index="0" speed="11.36" length="24.66" shape="300.89,288.16 300.45,291.25 297.00,297.00 291.25,300.45 283.20,301.60"/>
    </edge>
    <edge id=":Kedarnath_18" function="internal">
        <lane id=":Kedarnath_18_0" index="0" speed="6.51" length="9.03" shape="283.20,288.80 285.65,288.45 287.40,287.40 288.45,285.65 288.80,283.20"/>
    </edge>
    <edge id=":Kedarnath_19" function="internal">
        <lane id=":Kedarnath_19_0" index="0" speed="13.89" length="33.60" shape="283.20,288.80 316.80,288.80"/>
        <lane id=":Kedarnath_19_1" index="1" speed="13.89" length="33.60" shape="283.20,292.00 316.80,292.00"/>
        <lane id=":Kedarnath_19_2" index="2" speed="13.89" length="33.60" shape="283.20,295.20 316.80,295.20"/>
        <lane id=":Kedarnath_19_3" index="3" speed="13.89" length="33.60" shape="283.20,298.40 316.80,298.40"/>
    </edge>
    <edge id=":Kedarnath_23" function="internal">
        <lane id=":Kedarnath_23_0" index="0" speed="11.36" length="5.01" shape="283.20,298.40 288.16,299.11"/>
    </edge>
    <edge id=":Kedarnath_27" function="internal">
        <lane id=":Kedarnath_27_0" index="0" speed="11.36" length="24.66" shape="288.16,299.11 291.25,299.55 297.00,303.00 300.45,308.75 301.60,316.80"/>
    </edge>
    <edge id=":Mathura_0" function="internal">
        <lane id=":Mathura_0_0" index="0" speed="6.51" length="9.03" shape="-311.20,16.80 -311.55,14.35 -312.60,12.60 -314.35,11.55 -316.80,11.20"/>
    </edge>
    <edge id=":Mathura_1" function="internal">
        <lane id=":Mathura_1_0" index="0" speed="13.89" length="33.60" shape="-311.20,16.80 -311.20,-16.80"/>
        <lane id=":Mathura_1_1" index="1" speed="13.89" length="33.60" shape="-308.00,16.80 -308.00,-16.80"/>
        <lane id=":Mathura_1_2" index="2" speed="13.89" length="33.60" shape="-304.80,16.80 -304.80,-16.80"/>
        <lane id=":Mathura_1_3" index="3" speed="13.89" length="33.60" shape="-301.60,16.80 -301.60,-16.80"/>
    </edge>
    <edge id=":Mathura_5" function="internal">
        <lane id=":Mathura_5_0" index="0" speed="11.36" length="5.01" shape="-301.60,16.80 -300.89,11.84"/>
    </edge>
    <edge id=":Mathura_24" function="internal">
        <lane id=":Mathura_24_0" index="0" speed="11.36" length="24.66" shape="-300.89,11.84 -300.45,8.75 -297.00,3.00 -291.25,-0.45 -283.20,-1.60"/>
    </edge>
    <edge id=":Mathura_6" function="internal">
        <lane id=":Mathura_6_0" index="0" speed="6.51" length="9.03" shape="-283.20,11.20 -285.65,11.55 -287.40,12.60 -288.45,14.35 -288.80,16.80"/>
    </edge>
    <edge id=":Mathura_7" function="internal">
        <lane id=":Mathura_7_0" index="0" speed="13.89" length="33.60" shape="-283.20,11.20 -316.80,11.20"/>
        <lane id=":Mathura_7_1" index="1" speed="13.89" length="33.60" shape="-283.20,8.00 -316.80,8.00"/>
        <lane id=":Mathura_7_2" index="2" speed="13.89" length="33.60" shape="-283.20,4.80 -316.80,4.80"/>
        <lane id=":Mathura_7_3" index="3" speed="13.89" length="33.60" shape="-283.20,1.60 -316.80,1.60"/>
    </edge>
    <edge id=":Mathura_11" function="internal">
        <lane id=":Mathura_11_0" index="0" speed="11.36" length="5.01" shape="-283.20,1.60 -288.16,0.89"/>
    </edge>