<?xml version="1.0" ?>
<routes>
   <vType id="civilian" accel="2.6" decel="4.5" sigma="0.5" length="5" maxSpeed="13.89" color="0,1,0"/>
   <vType id="emergency" vClass="emergency" accel="3.5" decel="5.0" sigma="0" length="7" maxSpeed="20" color="1,0,0" guiShape="emergency">
      <param key="has.bluelight.device" value="true"/>
   </vType>
   <vehicle id="civilian_826" type="civilian" depart="1.519970228244505">
      <route edges="N2C C2E"/>
   </vehicle>
   <vehicle id="civilian_486" type="civilian" depart="2.338606348642225">
      <route edges="E2C C2S"/>
   </vehicle>
   <vehicle id="civilian_347" type="civilian" depart="11.618740840875219">
      <route edges="E2C C2W"/>
   </vehicle>
   <vehicle id="civilian_929" type="civilian" depart="14.438754968112688">
      <route edges="S2C C2E"/>
   </vehicle>
   <vehicle id="civilian_715" type="civilian" depart="23.317955081296525">
      <route edges="E2C C2N"/>
   </vehicle>
   <vehicle id="civilian_743" type="civilian" depart="24.85998594956138">
      <route edges="E2C C2W"/>
   </vehicle>
   <vehicle id="civilian_64" type="civilian" depart="32.03380573093">
      <route edges="E2C C2W"/>
   </vehicle>
   <vehicle id="civilian_980" type="civilian" depart="34.2993688899071">
      <route edges="N2C C2W"/>
   </vehicle>
   <vehicle id="civilian_710" type="civilian" depart="43.59046603578576">
      <route edges="N2C C2S"/>
   </vehicle>
   <vehicle id="civilian_7" type="civilian" depart="44.20173129315423">
      <route edges="S2C C2N"/>
   </vehicle>
   <vehicle id="civilian_977" type="civilian" depart="51.61106329800962">
      <route edges="E2C C2W"/>
   </vehicle>
   <vehicle id="civilian_646" type="civilian" depart="52.325370440065285">
      <route edges="N2C C2S"/>
   </vehicle>
   <vehicle id="civilian_258" type="civilian" depart="54.39114021035314">
      <route edges="N2C C2W"/>
   </vehicle>
   <vehicle id="civilian_496" type="civilian" depart="56.10627707964269">
      <route edges="E2C C2S"/>
   </vehicle>
   <vehicle id="civilian_937" type="civilian" depart="58.899594574581336">
      <route edges="W2C C2S"/>
   </vehicle>
   <vehicle id="civilian_393" type="civilian" depart="68.89926764752907">
      <route edges="W2C C2S"/>
   </vehicle>
   <vehicle id="civilian_873" type="civilian" depart="71.05010524758288">
      <route edges="S2C C2W"/>
   </vehicle>
   <vehicle id="civilian_692" type="civilian" depart="71.93521913756133">
      <route edges="W2C C2S"/>
   </vehicle>
   <vehicle id="civilian_144" type="civilian" depart="73.97947073380936">
      <route edges="E2C C2N"/>
   </vehicle>
   <vehicle id="civilian_721" type="civilian" depart="76.07549233189164">
      <route edges="E2C C2S"/>
   </vehicle>
   <vehicle id="civilian_965" type="civilian" depart="82.56260114085521">
      <route edges="S2C C2E"/>
   </vehicle>
   <vehicle id="civilian_607" type="civilian" depart="83.62060324544225">
      <route edges="S2C C2W"/>
   </vehicle>
   <vehicle id="civilian_633" type="civilian" depart="85.22525207339773">
      <route edges="W2C C2E"/>
   </vehicle>
   <vehicle id="civilian_530" type="civilian" depart="86.90307857219773">
      <route edges="E2C C2N"/>
   </vehicle>
   <vehicle id="emergency_6" type="emergency" depart="102.36001774436343">
      <route edges="E2C C2N"/>
   </vehicle>
   <vehicle id="civilian_619" type="civilian" depart="103.37439431600242">
      <route edges="E2C C2S"/>
   </vehicle>
   <vehicle id="civilian_524" type="civilian" depart="105.59478199792834">
      <route edges="N2C C2W"/>
   </vehicle>
   <vehicle id="civilian_849" type="civilian" depart="112.7224280305025">
      <route edges="S2C C2N"/>
   </vehicle>
   <vehicle id="civilian_720" type="civilian" depart="112.80349930935824">
      <route edges="S2C C2W"/>
   </vehicle>
   <vehicle id="emergency_121" type="emergency" depart="113.26486597846532">
      <route edges="E2C C2N"/>
   </vehicle>
   <vehicle id="emergency_137" type="emergency" depart="117.34760688387355">
      <route edges="E2C C2N"/>
   </vehicle>
   <vehicle id="civilian_399" type="civilian" depart="117.53906939406073">
      <route edges="N2C C2W"/>
   </vehicle>
   <vehicle id="civilian_779" type="civilian" depart="117.80694693608473">
      <route edges="S2C C2N"/>
   </vehicle>
   <vehicle id="civilian_46" type="civilian" depart="117.81143065190696">
      <route edges="W2C C2N"/>
   </vehicle>
   <vehicle id="civilian_278" type="civilian" depart="122.23861773453098">
      <route edges="N2C C2S"/>
   </vehicle>
   <vehicle id="civilian_101" type="civilian" depart="122.70424911849594">
      <route edges="N2C C2W"/>
   </vehicle>
   <vehicle id="civilian_308" type="civilian" depart="123.24069531618504">
      <route edges="E2C C2S"/>
   </vehicle>
   <vehicle id="civilian_772" type="civilian" depart="125.78221702473367">
      <route edges="W2C C2S"/>
   </vehicle>
   <vehicle id="civilian_427" type="civilian" depart="126.42202475306527">
      <route edges="N2C C2W"/>
   </vehicle>
   <vehicle id="civilian_388" type="civilian" depart="127.4676359543689">
      <route edges="E2C C2W"/>
   </vehicle>
   <vehicle id="civilian_620" type="civilian" depart="131.71978538607857">
      <route edges="S2C C2W"/>
   </vehicle>
   <vehicle id="civilian_210" type="civilian" depart="144.3409225679372">
      <route edges="E2C C2S"/>
   </vehicle>
   <vehicle id="civilian_404" type="civilian" depart="145.21544287505313">
      <route edges="W2C C2E"/>
   </vehicle>
   <vehicle id="civilian_174" type="civilian" depart="162.9237614100764">
      <route edges="W2C C2S"/>
   </vehicle>
   <vehicle id="civilian_356" type="civilian" depart="163.24785400450702">
      <route edges="N2C C2E"/>
   </vehicle>
   <vehicle id="emergency_64" type="emergency" depart="168.58890505741888">
      <route edges="S2C C2W"/>
   </vehicle>
   <vehicle id="civilian_697" type="civilian" depart="173.79810039951101">
      <route edges="W2C C2S"/>
   </vehicle>
   <vehicle id="civilian_889" type="civilian" depart="179.73121419675073">
      <route edges="E2C C2S"/>
   </vehicle>
   <vehicle id="civilian_820" type="civilian" depart="182.45850100665163">
      <route edges="E2C C2W"/>
   </vehicle>
   <vehicle id="civilian_850" type="civilian" depart="183.5485832850381">
      <route edges="N2C C2E"/>
   </vehicle>
   <vehicle id="civilian_349" type="civilian" depart="183.6589003364943">
      <route edges="W2C C2S"/>
   </vehicle>
   <vehicle id="civilian_147" type="civilian" depart="184.56712164199217">
      <route edges="N2C C2E"/>
   </vehicle>
   <vehicle id="civilian_67" type="civilian" depart="189.85092893538695">
      <route edges="S2C C2W"/>
   </vehicle>
   <vehicle id="civilian_360" type="civilian" depart="190.98893963962112">
      <route edges="E2C C2W"/>
   </vehicle>
   <vehicle id="civilian_276" type="civilian" depart="191.7911312274168">
      <route edges="N2C C2S"/>
   </vehicle>
   <vehicle id="civilian_430" type="civilian" depart="191.863074610136">
      <route edges="W2C C2E"/>
   </vehicle>
   <vehicle id="civilian_795" type="civilian" depart="195.3776316398522">
      <route edges="W2C C2S"/>
   </vehicle>
   <vehicle id="civilian_666" type="civilian" depart="197.5076655099461">
      <route edges="N2C C2E"/>
   </vehicle>
   <vehicle id="civilian_501" type="civilian" depart="200.86767954834576">
      <route edges="S2C C2N"/>
   </vehicle>
   <vehicle id="civilian_362" type="civilian" depart="205.805343474497">
      <route edges="S2C C2N"/>
   </vehicle>
   <vehicle id="emergency_110" type="emergency" depart="208.59660697665694">
      <route edges="W2C C2S"/>
   </vehicle>
   <vehicle id="civilian_487" type="civilian" depart="211.36174852097298">
      <route edges="N2C C2W"/>
   </vehicle>
   <vehicle id="emergency_37" type="emergency" depart="213.3189520717589">
      <route edges="E2C C2N"/>
   </vehicle>
   <vehicle id="emergency_47" type="emergency" depart="216.97617286099154">
      <route edges="W2C C2N"/>
   </vehicle>
   <vehicle id="civilian_967" type="civilian" depart="217.7424506680121">
      <route edges="W2C C2E"/>
   </vehicle>
   <vehicle id="civilian_629" type="civilian" depart="217.76564590375264">
      <route edges="E2C C2W"/>
   </vehicle>
   <vehicle id="emergency_166" type="emergency" depart="218.20807616484956">
      <route edges="W2C C2N"/>
   </vehicle>
   <vehicle id="civilian_839" type="civilian" depart="220.49479521954308">
      <route edges="S2C C2W"/>
   </vehicle>
   <vehicle id="civilian_614" type="civilian" depart="223.49650353095026">
      <route edges="E2C C2N"/>
   </vehicle>
   <vehicle id="civilian_322" type="civilian" depart="228.16331537097807">
      <route edges="N2C C2S"/>
   </vehicle>
   <vehicle id="civilian_838" type="civilian" depart="228.6998731471828">
      <route edges="N2C C2E"/>
   </vehicle>
   <vehicle id="civilian_117" type="civilian" depart="229.36587549768456">
      <route edges="E2C C2N"/>
   </vehicle>
   <vehicle id="civilian_741" type="civilian" depart="233.46984384953578">
      <route edges="E2C C2W"/>
   </vehicle>
   <vehicle id="civilian_636" type="civilian" depart="234.1454487520243">
      <route edges="W2C C2E"/>
   </vehicle>
   <vehicle id="emergency_8" type="emergency" depart="240.59995845600537">
      <route edges="W2C C2E"/>
   </vehicle>
   <vehicle id="emergency_164" type="emergency" depart="242.43481857430004">
      <route edges="S2C C2W"/>
   </vehicle>
   <vehicle id="civilian_352" type="civilian" depart="243.74440536341493">
      <route edges="E2C C2W"/>
   </vehicle>
   <vehicle id="civilian_781" type="civilian" depart="244.74101753174548">
      <route edges="E2C C2W"/>
   </vehicle>
   <vehicle id="civilian_752" type="civilian" depart="246.49798927601086">
      <route edges="W2C C2S"/>
   </vehicle>
   <vehicle id="civilian_712" type="civilian" depart="247.9842348263011">
      <route edges="W2C C2S"/>
   </vehicle>
   <vehicle id="civilian_236" type="civilian" depart="256.94049994058196">
      <route edges="W2C C2S"/>
   </vehicle>
   <vehicle id="civilian_472" type="civilian" depart="258.6988838635589">
      <route edges="E2C C2W"/>
   </vehicle>
   <vehicle id="civilian_851" type="civilian" depart="264.12157979420357">
      <route edges="S2C C2E"/>
   </vehicle>
   <vehicle id="civilian_273" type="civilian" depart="264.5274188048819">
      <route edges="S2C C2W"/>
   </vehicle>
   <vehicle id="emergency_191" type="emergency" depart="265.12400265410673">
      <route edges="N2C C2S"/>
   </vehicle>
   <vehicle id="civilian_597" type="civilian" depart="265.1798942890774">
      <route edges="E2C C2N"/>
   </vehicle>
   <vehicle id="civilian_136" type="civilian" depart="266.65864853074544">
      <route edges="N2C C2E"/>
   </vehicle>
   <vehicle id="civilian_762" type="civilian" depart="278.4762516939531">
      <route edges="S2C C2N"/>
   </vehicle>
   <vehicle id="civilian_764" type="civilian" depart="278.72987723224514">
      <route edges="W2C C2S"/>
   </vehicle>
   <vehicle id="civilian_109" type="civilian" depart="281.66389728066326">
      <route edges="S2C C2N"/>
   </vehicle>
   <vehicle id="civilian_757" type="civilian" depart="288.8617731796478">
      <route edges="S2C C2E"/>
   </vehicle>
   <vehicle id="civilian_900" type="civilian" depart="292.7631522832039">
      <route edges="W2C C2S"/>
   </vehicle>
   <vehicle id="civilian_506" type="civilian" depart="293.8115269419688">
      <route edges="E2C C2W"/>
   </vehicle>
   <vehicle id="civilian_855" type="civilian" depart="295.7320722979214">
      <route edges="W2C C2N"/>
   </vehicle>
   <vehicle id="civilian_166" type="civilian" depart="296.0191264648794">
      <route edges="E2C C2N"/>
   </vehicle>
   <vehicle id="civilian_332" type="civilian" depart="296.4749275925997">
      <route edges="N2C C2S"/>
   </vehicle>
   <vehicle id="civilian_483" type="civilian" depart="299.06461183588675">
      <route edges="E2C C2W"/>
   </vehicle>
   <vehicle id="civilian_141" type="civilian" depart="300.40972716673963">
      <route edges="W2C C2E"/>
   </vehicle>
   <vehicle id="emergency_12" type="emergency" depart="301.6569454368435">
      <route edges="N2C C2W"/>
   </vehicle>
   <vehicle id="civilian_71" type="civilian" depart="307.2046505006547">
      <route edges="E2C C2N"/>
   </vehicle>
   <vehicle id="civilian_960" type="civilian" depart="307.314596117575">
      <route edges="E2C C2S"/>
   </vehicle>
   <vehicle id="civilian_296" type="civilian" depart="317.5794344950529">
      <route edges="W2C C2E"/>
   </vehicle>
   <vehicle id="civilian_343" type="civilian" depart="319.07508183192203">
      <route edges="S2C C2W"/>
   </vehicle>
   <vehicle id="civilian_950" type="civilian" depart="322.8538686834667">
      <route edges="S2C C2E"/>
   </vehicle>
   <vehicle id="civilian_471" type="civilian" depart="327.76736727263807">
      <route edges="N2C C2E"/>
   </vehicle>
   <vehicle id="civilian_307" type="civilian" depart="327.79824323286385">
      <route edges="E2C C2S"/>
   </vehicle>
   <vehicle id="emergency_142" type="emergency" depart="328.4615381792389">
      <route edges="S2C C2W"/>
   </vehicle>
   <vehicle id="civilian_924" type="civilian" depart="339.0165111254591">
      <route edges="E2C C2W"/>
   </vehicle>
   <vehicle id="civilian_493" type="civilian" depart="339.60466298206103">
      <route edges="S2C C2W"/>
   </vehicle>
   <vehicle id="civilian_228" type="civilian" depart="340.7863062707623">
      <route edges="W2C C2N"/>
   </vehicle>
   <vehicle id="civilian_585" type="civilian" depart="344.0496470981496">
      <route edges="N2C C2W"/>
   </vehicle>
   <vehicle id="civilian_807" type="civilian" depart="352.7094147190768">
      <route edges="E2C C2W"/>
   </vehicle>
   <vehicle id="civilian_964" type="civilian" depart="355.2667482095488">
      <route edges="E2C C2W"/>
   </vehicle>
   <vehicle id="civilian_592" type="civilian" depart="360.0027128397927">
      <route edges="W2C C2N"/>
   </vehicle>
   <vehicle id="emergency_50" type="emergency" depart="361.8400066593734">
      <route edges="E2C C2W"/>
   </vehicle>
   <vehicle id="civilian_272" type="civilian" depart="362.18249408987805">
      <route edges="W2C C2S"/>
   </vehicle>
   <vehicle id="civilian_24" type="civilian" depart="366.2522925307849">
      <route edges="N2C C2W"/>
   </vehicle>
   <vehicle id="civilian_140" type="civilian" depart="371.50717618813223">
      <route edges="N2C C2S"/>
   </vehicle>
   <vehicle id="civilian_814" type="civilian" depart="374.78271214755614">
      <route edges="W2C C2N"/>
   </vehicle>
   <vehicle id="civilian_773" type="civilian" depart="375.4765330353157">
      <route edges="E2C C2S"/>
   </vehicle>
   <vehicle id="civilian_491" type="civilian" depart="380.9417983548994">
      <route edges="W2C C2S"/>
   </vehicle>
   <vehicle id="civilian_870" type="civilian" depart="380.97430488154544">
      <route edges="W2C C2E"/>
   </vehicle>
   <vehicle id="civilian_178" type="civilian" depart="384.50755425047294">
      <route edges="W2C C2E"/>
   </vehicle>
   <vehicle id="civilian_389" type="civilian" depart="389.34613320214845">
      <route edges="S2C C2N"/>
   </vehicle>
   <vehicle id="civilian_435" type="civilian" depart="395.80096286460827">
      <route edges="N2C C2E"/>
   </vehicle>
   <vehicle id="civilian_96" type="civilian" depart="398.4071904007029">
      <route edges="W2C C2S"/>
   </vehicle>
   <vehicle id="civilian_898" type="civilian" depart="404.0805236504851">
      <route edges="W2C C2E"/>
   </vehicle>
   <vehicle id="civilian_732" type="civilian" depart="408.84184316866384">
      <route edges="E2C C2S"/>
   </vehicle>
   <vehicle id="civilian_456" type="civilian" depart="410.6448944437998">
      <route edges="N2C C2W"/>
   </vehicle>
   <vehicle id="civilian_670" type="civilian" depart="411.83038336268896">
      <route edges="N2C C2E"/>
   </vehicle>
   <vehicle id="emergency_172" type="emergency" depart="411.9030974026716">
      <route edges="E2C C2S"/>
   </vehicle>
   <vehicle id="civilian_678" type="civilian" depart="418.14315613745407">
      <route edges="N2C C2W"/>
   </vehicle>
   <vehicle id="emergency_48" type="emergency" depart="418.8350951891877">
      <route edges="S2C C2W"/>
   </vehicle>
   <vehicle id="civilian_293" type="civilian" depart="419.8632025533473">
      <route edges="E2C C2S"/>
   </vehicle>
   <vehicle id="civilian_888" type="civilian" depart="420.58292661365175">
      <route edges="E2C C2N"/>
   </vehicle>
   <vehicle id="emergency_75" type="emergency" depart="424.875120540964">
      <route edges="W2C C2N"/>
   </vehicle>
   <vehicle id="civilian_503" type="civilian" depart="428.71844366586333">
      <route edges="S2C C2W"/>
   </vehicle>
   <vehicle id="emergency_154" type="emergency" depart="431.90217160749177">
      <route edges="E2C C2W"/>
   </vehicle>
   <vehicle id="civilian_134" type="civilian" depart="435.97703190268095">
      <route edges="S2C C2E"/>
   </vehicle>
   <vehicle id="civilian_443" type="civilian" depart="438.33309422235743">
      <route edges="S2C C2E"/>
   </vehicle>
   <vehicle id="civilian_34" type="civilian" depart="438.7794509646073">
      <route edges="N2C C2W"/>
   </vehicle>
   <vehicle id="civilian_16" type="civilian" depart="444.1638972416319">
      <route edges="E2C C2S"/>
   </vehicle>
   <vehicle id="civilian_300" type="civilian" depart="445.18043524471545">
      <route edges="W2C C2E"/>
   </vehicle>
   <vehicle id="emergency_112" type="emergency" depart="447.4208205907463">
      <route edges="E2C C2W"/>
   </vehicle>
   <vehicle id="civilian_39" type="civilian" depart="449.4821438711344">
      <route edges="S2C C2N"/>
   </vehicle>
   <vehicle id="civilian_376" type="civilian" depart="461.1424248270322">
      <route edges="N2C C2W"/>
   </vehicle>
   <vehicle id="civilian_442" type="civilian" depart="464.9101548518247">
      <route edges="S2C C2W"/>
   </vehicle>
   <vehicle id="civilian_412" type="civilian" depart="466.49287026581237">
      <route edges="W2C C2N"/>
   </vehicle>
   <vehicle id="civilian_461" type="civilian" depart="471.72641967392883">
      <route edges="S2C C2W"/>
   </vehicle>
   <vehicle id="civilian_334" type="civilian" depart="476.9691468017688">
      <route edges="E2C C2N"/>
   </vehicle>
   <vehicle id="civilian_638" type="civilian" depart="484.7380860252663">
      <route edges="W2C C2E"/>
   </vehicle>
   <vehicle id="civilian_324" type="civilian" depart="488.7524162705729">
      <route edges="W2C C2S"/>
   </vehicle>
   <vehicle id="civilian_345" type="civilian" depart="490.41824824536207">
      <route edges="W2C C2S"/>
   </vehicle>
   <vehicle id="civilian_991" type="civilian" depart="494.3812114111312">
      <route edges="N2C C2W"/>
   </vehicle>
   <vehicle id="emergency_55" type="emergency" depart="497.36236131090794">
      <route edges="S2C C2N"/>
   </vehicle>
   <vehicle id="civilian_961" type="civilian" depart="497.588003813621">
      <route edges="W2C C2S"/>
   </vehicle>
   <vehicle id="emergency_0" type="emergency" depart="503.4018478186948">
      <route edges="W2C C2N"/>
   </vehicle>
   <vehicle id="civilian_211" type="civilian" depart="505.2150401787923">
      <route edges="E2C C2S"/>
   </vehicle>
   <vehicle id="civilian_274" type="civilian" depart="505.2959933820352">
      <route edges="N2C C2E"/>
   </vehicle>
   <vehicle id="emergency_92" type="emergency" depart="505.59612330681506">
      <route edges="W2C C2E"/>
   </vehicle>
   <vehicle id="civilian_662" type="civilian" depart="509.7179597204478">
      <route edges="E2C C2N"/>
   </vehicle>
   <vehicle id="civilian_907" type="civilian" depart="510.74378484787616">
      <route edges="E2C C2N"/>
   </vehicle>
   <vehicle id="civilian_335" type="civilian" depart="511.93973021051335">
      <route edges="S2C C2W"/>
   </vehicle>
   <vehicle id="civilian_249" type="civilian" depart="512.9830276551455">
      <route edges="S2C C2N"/>
   </vehicle>
   <vehicle id="civilian_190" type="civilian" depart="513.9875345025278">
      <route edges="W2C C2S"/>
   </vehicle>
   <vehicle id="civilian_556" type="civilian" depart="514.1717805709206">
      <route edges="S2C C2E"/>
   </vehicle>
   <vehicle id="civilian_652" type="civilian" depart="516.5879313427096">
      <route edges="S2C C2W"/>
   </vehicle>
   <vehicle id="civilian_172" type="civilian" depart="518.236838669303">
      <route edges="E2C C2W"/>
   </vehicle>
   <vehicle id="civilian_698" type="civilian" depart="518.3769756681678">
      <route edges="E2C C2S"/>
   </vehicle>
   <vehicle id="civilian_484" type="civilian" depart="520.1088384808156">
      <route edges="W2C C2N"/>
   </vehicle>
   <vehicle id="civilian_668" type="civilian" depart="522.6381636035809">
      <route edges="S2C C2N"/>
   </vehicle>
   <vehicle id="civilian_97" type="civilian" depart="525.4537727940955">
      <route edges="S2C C2N"/>
   </vehicle>
   <vehicle id="civilian_366" type="civilian" depart="527.2014368144887">
      <route edges="W2C C2S"/>
   </vehicle>
   <vehicle id="civilian_460" type="civilian" depart="537.0054904640542">
      <route edges="W2C C2N"/>
   </vehicle>
   <vehicle id="civilian_602" type="civilian" depart="545.1306421374582">
      <route edges="W2C C2N"/>
   </vehicle>
   <vehicle id="emergency_44" type="emergency" depart="546.6919858513047">
      <route edges="W2C C2N"/>
   </vehicle>
   <vehicle id="civilian_70" type="civilian" depart="548.3172836405384">
      <route edges="W2C C2S"/>
   </vehicle>
   <vehicle id="civilian_150" type="civilian" depart="554.0411335549377">
      <route edges="W2C C2S"/>
   </vehicle>
   <vehicle id="civilian_251" type="civilian" depart="555.3826659725896">
      <route edges="W2C C2E"/>
   </vehicle>
   <vehicle id="civilian_385" type="civilian" depart="559.8520186552672">
      <route edges="E2C C2S"/>
   </vehicle>
   <vehicle id="emergency_173" type="emergency" depart="560.5152623930417">
      <route edges="S2C C2N"/>
   </vehicle>
   <vehicle id="civilian_390" type="civilian" depart="561.7076552443403">
      <route edges="W2C C2N"/>
   </vehicle>
   <vehicle id="civilian_824" type="civilian" depart="566.64348163837">
      <route edges="E2C C2W"/>
   </vehicle>
   <vehicle id="civilian_338" type="civilian" depart="567.3652823456407">
      <route edges="W2C C2N"/>
   </vehicle>
   <vehicle id="civilian_200" type="civilian" depart="567.6962164053349">
      <route edges="N2C C2W"/>
   </vehicle>
   <vehicle id="civilian_125" type="civilian" depart="568.8101982953407">
      <route edges="W2C C2E"/>
   </vehicle>
   <vehicle id="civilian_868" type="civilian" depart="573.4570594598708">
      <route edges="E2C C2S"/>
   </vehicle>
   <vehicle id="civilian_639" type="civilian" depart="574.7347347847636">
      <route edges="E2C C2S"/>
   </vehicle>
   <vehicle id="emergency_98" type="emergency" depart="575.0229512398598">
      <route edges="E2C C2W"/>
   </vehicle>
   <vehicle id="civilian_904" type="civilian" depart="579.4977382164167">
      <route edges="S2C C2N"/>
   </vehicle>
   <vehicle id="civilian_521" type="civilian" depart="582.8123029678684">
      <route edges="W2C C2E"/>
   </vehicle>
   <vehicle id="civilian_716" type="civilian" depart="592.8134684107645">
      <route edges="W2C C2E"/>
   </vehicle>
   <vehicle id="emergency_26" type="emergency" depart="594.3766614073248">
      <route edges="S2C C2W"/>
   </vehicle>
   <vehicle id="civilian_3" type="civilian" depart="602.980229760273">
      <route edges="S2C C2W"/>
   </vehicle>
   <vehicle id="civilian_628" type="civilian" depart="611.8073685210162">
      <route edges="N2C C2E"/>
   </vehicle>
   <vehicle id="civilian_467" type="civilian" depart="619.1648515104961">
      <route edges="E2C C2W"/>
   </vehicle>
   <vehicle id="civilian_722" type="civilian" depart="621.745482419988">
      <route edges="W2C C2E"/>
   </vehicle>
   <vehicle id="emergency_2" type="emergency" depart="624.977302444442">
      <route edges="S2C C2W"/>
   </vehicle>
   <vehicle id="civilian_518" type="civilian" depart="625.4465870258334">
      <route edges="N2C C2W"/>
   </vehicle>
   <vehicle id="emergency_185" type="emergency" depart="628.3506092546576">
      <route edges="W2C C2S"/>
   </vehicle>
   <vehicle id="civilian_932" type="civilian" depart="628.4556289663626">
      <route edges="E2C C2S"/>
   </vehicle>
   <vehicle id="emergency_192" type="emergency" depart="628.5925175366484">
      <route edges="S2C C2N"/>
   </vehicle>
   <vehicle id="civilian_949" type="civilian" depart="629.1358214754146">
      <route edges="S2C C2E"/>
   </vehicle>
   <vehicle id="civilian_549" type="civilian" depart="629.6208004855383">
      <route edges="N2C C2W"/>
   </vehicle>
   <vehicle id="civilian_175" type="civilian" depart="636.5694920732134">
      <route edges="S2C C2W"/>
   </vehicle>
   <vehicle id="emergency_90" type="emergency" depart="637.2250345608875">
      <route edges="W2C C2S"/>
   </vehicle>
   <vehicle id="civilian_159" type="civilian" depart="638.1248379809037">
      <route edges="W2C C2S"/>
   </vehicle>
   <vehicle id="civilian_516" type="civilian" depart="645.3452400366425">
      <route edges="S2C C2W"/>
   </vehicle>
   <vehicle id="civilian_867" type="civilian" depart="653.99038549772">
      <route edges="S2C C2W"/>
   </vehicle>
   <vehicle id="civilian_253" type="civilian" depart="659.8658093379406">
      <route edges="N2C C2E"/>
   </vehicle>
   <vehicle id="emergency_52" type="emergency" depart="663.3816173024155">
      <route edges="E2C C2S"/>
   </vehicle>
   <vehicle id="civilian_557" type="civilian" depart="669.2956587974596">
      <route edges="N2C C2E"/>
   </vehicle>
   <vehicle id="civilian_941" type="civilian" depart="670.5602723593607">
      <route edges="W2C C2S"/>
   </vehicle>
   <vehicle id="emergency_24" type="emergency" depart="676.4567901763705">
      <route edges="W2C C2N"/>
   </vehicle>
   <vehicle id="civilian_444" type="civilian" depart="683.420752179119">
      <route edges="W2C C2S"/>
   </vehicle>
   <vehicle id="civilian_580" type="civilian" depart="683.8812283082945">
      <route edges="N2C C2W"/>
   </vehicle>
   <vehicle id="civilian_635" type="civilian" depart="685.1967030512277">
      <route edges="W2C C2S"/>
   </vehicle>
   <vehicle id="civilian_30" type="civilian" depart="685.9151437423264">
      <route edges="S2C C2E"/>
   </vehicle>
   <vehicle id="civilian_512" type="civilian" depart="692.121647345135">
      <route edges="N2C C2E"/>
   </vehicle>
   <vehicle id="emergency_122" type="emergency" depart="693.9521210212222">
      <route edges="S2C C2W"/>
   </vehicle>
   <vehicle id="civilian_989" type="civilian" depart="694.2713657902384">
      <route edges="S2C C2W"/>
   </vehicle>
   <vehicle id="civilian_938" type="civilian" depart="694.8061215249468">
      <route edges="S2C C2E"/>
   </vehicle>
   <vehicle id="civilian_40" type="civilian" depart="700.4878671570197">
      <route edges="N2C C2S"/>
   </vehicle>
   <vehicle id="civilian_5" type="civilian" depart="700.6525321309771">
      <route edges="W2C C2S"/>
   </vehicle>
   <vehicle id="civilian_85" type="civilian" depart="701.5055402891768">
      <route edges="S2C C2N"/>
   </vehicle>
   <vehicle id="civilian_843" type="civilian" depart="705.2385895382877">
      <route edges="W2C C2N"/>
   </vehicle>
   <vehicle id="civilian_336" type="civilian" depart="709.5307588728921">
      <route edges="S2C C2N"/>
   </vehicle>
   <vehicle id="civilian_548" type="civilian" depart="711.5108386060156">
      <route edges="N2C C2E"/>
   </vehicle>
   <vehicle id="civilian_418" type="civilian" depart="713.4304797939013">
      <route edges="S2C C2E"/>
   </vehicle>
   <vehicle id="civilian_56" type="civilian" depart="718.0301009262466">
      <route edges="N2C C2S"/>
   </vehicle>
   <vehicle id="civilian_706" type="civilian" depart="721.5051925021279">
      <route edges="W2C C2N"/>
   </vehicle>
   <vehicle id="civilian_523" type="civilian" depart="722.4266641868049">
      <route edges="W2C C2N"/>
   </vehicle>
   <vehicle id="civilian_598" type="civilian" depart="729.7686377806086">
      <route edges="W2C C2S"/>
   </vehicle>
   <vehicle id="civilian_798" type="civilian" depart="734.4883350544183">
      <route edges="W2C C2N"/>
   </vehicle>
   <vehicle id="civilian_649" type="civilian" depart="736.6878223080597">
      <route edges="S2C C2N"/>
   </vehicle>
   <vehicle id="civilian_320" type="civilian" depart="744.8711858854332">
      <route edges="W2C C2S"/>
   </vehicle>
   <vehicle id="civilian_139" type="civilian" depart="748.1119801205417">
      <route edges="N2C C2S"/>
   </vehicle>
   <vehicle id="civilian_884" type="civilian" depart="752.368118423272">
      <route edges="E2C C2N"/>
   </vehicle>
   <vehicle id="emergency_56" type="emergency" depart="753.2166554304624">
      <route edges="E2C C2S"/>
   </vehicle>
   <vehicle id="civilian_719" type="civilian" depart="754.1525570387685">
      <route edges="E2C C2W"/>
   </vehicle>
   <vehicle id="emergency_144" type="emergency" depart="756.7637763347495">
      <route edges="E2C C2N"/>
   </vehicle>
   <vehicle id="civilian_644" type="civilian" depart="757.8449595695978">
      <route edges="W2C C2E"/>
   </vehicle>
   <vehicle id="civilian_248" type="civilian" depart="760.0720915300282">
      <route edges="W2C C2E"/>
   </vehicle>
   <vehicle id="civilian_124" type="civilian" depart="760.3477405968862">
      <route edges="W2C C2E"/>
   </vehicle>
   <vehicle id="civilian_108" type="civilian" depart="762.4739692731457">
      <route edges="W2C C2N"/>
   </vehicle>
   <vehicle id="civilian_830" type="civilian" depart="763.5285334206469">
      <route edges="S2C C2W"/>
   </vehicle>
   <vehicle id="civilian_381" type="civilian" depart="764.1337164402647">
      <route edges="E2C C2S"/>
   </vehicle>
   <vehicle id="civilian_601" type="civilian" depart="764.2973438572353">
      <route edges="E2C C2W"/>
   </vehicle>