<?xml version="1.0" ?>
<routes>
 <vType id="civilian" accel="2.6" decel="4.5" sigma="0.5" length="5" maxSpeed="13.89" color="0,1,0"/>
 <vType id="emergency" vClass="emergency" accel="3.5" decel="5.0" sigma="0" length="7" maxSpeed="20" color="1,0,0" guiShape="emergency">
  <param key="has.bluelight.device" value="true"/>
 </vType>
 <vehicle id="civilian_8848" type="civilian" depart="0.58">
  <route edges="W12C1 C12C3"/>
 </vehicle>
 <vehicle id="civilian_9073" type="civilian" depart="2.24">
  <route edges="E12C3 C32C4 C42C2"/>
 </vehicle>
 <vehicle id="civilian_8796" type="civilian" depart="2.31">
  <route edges="C12C2 C22C4"/>
 </vehicle>
 <vehicle id="civilian_8509" type="civilian" depart="2.64">
  <route edges="W12C1 C12C2 C22C4 C42C3 C32C1"/>
 </vehicle>
 <vehicle id="civilian_5987" type="civilian" depart="3.11">
  <route edges="W12C1 C12C2 C22C4 C42C3"/>
 </vehicle>
 <vehicle id="civilian_6826" type="civilian" depart="3.23">
  <route edges="N12C1 C12C2 C22C4 C42C3"/>
 </vehicle>
 <vehicle id="civilian_8966" type="civilian" depart="3.45">
  <route edges="C42C2 C22C1"/>
 </vehicle>
 <vehicle id="civilian_5595" type="civilian" depart="5.60">
  <route edges="E22C4 C42C2 C22C1 C12C3 C32C4"/>
 </vehicle>
 <vehicle id="civilian_6676" type="civilian" depart="5.92">
  <route edges="C42C3 C32C1 C12C2 C22C4"/>
 </vehicle>
 <vehicle id="civilian_8526" type="civilian" depart="6.04">
  <route edges="E12C3 C32C4 C42C2 C22C1 C12C3"/>
 </vehicle>
 <vehicle id="civilian_8912" type="civilian" depart="7.07">
  <route edges="E12C3 C32C1 C12C2 C22C4 C42C3"/>
 </vehicle>
 <vehicle id="civilian_1492" type="civilian" depart="7.78">
  <route edges="E12C3 C32C1 C12C2 C22C4 C42C3"/>
 </vehicle>
 <vehicle id="civilian_9855" type="civilian" depart="9.20">
  <route edges="E22C4 C42C2 C22C1"/>
 </vehicle>
 <vehicle id="civilian_8694" type="civilian" depart="9.87">
  <route edges="C12C2 C22C4"/>
 </vehicle>
 <vehicle id="civilian_221" type="civilian" depart="10.39">
  <route edges="N12C1 C12C2"/>
 </vehicle>
 <vehicle id="civilian_8492" type="civilian" depart="12.70">
  <route edges="C12C3 C32C4 C42C2"/>
 </vehicle>
 <vehicle id="civilian_6796" type="civilian" depart="13.02">
  <route edges="S22C4 C42C3 C32C1 C12C2"/>
 </vehicle>
 <vehicle id="civilian_224" type="civilian" depart="14.75">
  <route edges="N12C1 C12C3"/>
 </vehicle>
 <vehicle id="civilian_6223" type="civilian" depart="15.22">
  <route edges="W12C1 C12C3 C32C4 C42C2"/>
 </vehicle>
 <vehicle id="civilian_3039" type="civilian" depart="15.89">
  <route edges="S22C4 C42C3 C32C1 C12C2 C22C4"/>
 </vehicle>
 <vehicle id="civilian_5114" type="civilian" depart="18.42">
  <route edges="N22C3 C32C4 C42C2 C22C1"/>
 </vehicle>
 <vehicle id="civilian_2860" type="civilian" depart="18.64">
  <route edges="S12C2 C22C4 C42C3 C32C1"/>
 </vehicle>
 <vehicle id="civilian_6014" type="civilian" depart="18.85">
  <route edges="E22C4 C42C2"/>
 </vehicle>
 <vehicle id="civilian_3786" type="civilian" depart="19.35">
  <route edges="W22C2 C22C4 C42C3"/>
 </vehicle>
 <vehicle id="civilian_8853" type="civilian" depart="19.38">
  <route edges="E22C4 C42C3 C32C1 C12C2"/>
 </vehicle>
 <vehicle id="civilian_2970" type="civilian" depart="20.33">
  <route edges="S12C2 C22C1"/>
 </vehicle>
 <vehicle id="civilian_5083" type="civilian" depart="21.29">
  <route edges="C12C2 C22C4 C42C3 C32C1"/>
 </vehicle>
 <vehicle id="civilian_6904" type="civilian" depart="21.85">
  <route edges="N22C3 C32C1 C12C2 C22C4 C42C3"/>
 </vehicle>
 <vehicle id="civilian_6480" type="civilian" depart="21.94">
  <route edges="W22C2 C22C4 C42C3 C32C1"/>
 </vehicle>
 <vehicle id="civilian_9207" type="civilian" depart="23.03">
  <route edges="C32C4 C42C2 C22C1 C12C3"/>
 </vehicle>
 <vehicle id="civilian_4741" type="civilian" depart="23.39">
  <route edges="W22C2 C22C1"/>
 </vehicle>
 <vehicle id="civilian_7337" type="civilian" depart="23.71">
  <route edges="C32C1 C12C2 C22C4 C42C3"/>
 </vehicle>
 <vehicle id="civilian_3136" type="civilian" depart="24.40">
  <route edges="N12C1 C12C3 C32C4"/>
 </vehicle>
 <vehicle id="civilian_4341" type="civilian" depart="25.87">
  <route edges="C12C3 C32C4"/>
 </vehicle>
 <vehicle id="civilian_971" type="civilian" depart="26.46">
  <route edges="E12C3 C32C4 C42C2"/>
 </vehicle>
 <vehicle id="civilian_9274" type="civilian" depart="26.76">
  <route edges="S22C4 C42C2 C22C1 C12C3 C32C4"/>
 </vehicle>
 <vehicle id="civilian_1142" type="civilian" depart="27.09">
  <route edges="S12C2 C22C4 C42C3"/>
 </vehicle>
 <vehicle id="civilian_814" type="civilian" depart="28.06">
  <route edges="E12C3 C32C1 C12C2"/>
 </vehicle>
 <vehicle id="civilian_2090" type="civilian" depart="28.30">
  <route edges="S22C4 C42C3 C32C1"/>
 </vehicle>
 <vehicle id="civilian_4036" type="civilian" depart="28.90">
  <route edges="N22C3 C32C4"/>
 </vehicle>
 <vehicle id="civilian_3802" type="civilian" depart="29.02">
  <route edges="W22C2 C22C1 C12C3 C32C4 C42C2"/>
 </vehicle>
 <vehicle id="civilian_506" type="civilian" depart="29.38">
  <route edges="S22C4 C42C3 C32C1"/>
 </vehicle>
 <vehicle id="civilian_7789" type="civilian" depart="29.74">
  <route edges="S22C4 C42C3 C32C1 C12C2"/>
 </vehicle>
 <vehicle id="civilian_6686" type="civilian" depart="29.82">
  <route edges="C22C4 C42C3 C32C1"/>
 </vehicle>
 <vehicle id="civilian_5373" type="civilian" depart="29.97">
  <route edges="C32C4 C42C2"/>
 </vehicle>
 <vehicle id="civilian_6488" type="civilian" depart="30.15">
  <route edges="C42C2 C22C1"/>
 </vehicle>
 <vehicle id="civilian_9072" type="civilian" depart="30.22">
  <route edges="S12C2 C22C4 C42C3 C32C1"/>
 </vehicle>
 <vehicle id="civilian_5954" type="civilian" depart="30.95">
  <route edges="S12C2 C22C4 C42C3 C32C1 C12C2"/>
 </vehicle>
 <vehicle id="civilian_9280" type="civilian" depart="31.07">
  <route edges="C32C4 C42C2 C22C1 C12C3"/>
 </vehicle>
 <vehicle id="civilian_654" type="civilian" depart="31.77">
  <route edges="S12C2 C22C4 C42C3"/>
 </vehicle>
 <vehicle id="civilian_5296" type="civilian" depart="32.87">
  <route edges="C42C2 C22C1 C12C3 C32C4"/>
 </vehicle>
 <vehicle id="civilian_3110" type="civilian" depart="33.35">
  <route edges="W22C2 C22C1 C12C3 C32C4"/>
 </vehicle>
 <vehicle id="civilian_426" type="civilian" depart="33.89">
  <route edges="S22C4 C42C2 C22C1 C12C3"/>
 </vehicle>
 <vehicle id="civilian_5947" type="civilian" depart="34.25">
  <route edges="C32C1 C12C2 C22C4"/>
 </vehicle>
 <vehicle id="civilian_1325" type="civilian" depart="34.28">
  <route edges="S22C4 C42C2 C22C1 C12C3"/>
 </vehicle>
 <vehicle id="civilian_6634" type="civilian" depart="34.87">
  <route edges="S22C4 C42C2 C22C1"/>
 </vehicle>
 <vehicle id="civilian_9385" type="civilian" depart="35.13">
  <route edges="N12C1 C12C3 C32C4 C42C2 C22C1"/>
 </vehicle>
 <vehicle id="civilian_7599" type="civilian" depart="35.25">
  <route edges="E22C4 C42C3 C32C1 C12C2"/>
 </vehicle>
 <vehicle id="civilian_2744" type="civilian" depart="35.38">
  <route edges="C42C2 C22C1 C12C3 C32C4"/>
 </vehicle>
 <vehicle id="civilian_1224" type="civilian" depart="35.47">
  <route edges="W12C1 C12C2"/>
 </vehicle>
 <vehicle id="civilian_6157" type="civilian" depart="35.81">
  <route edges="C42C3 C32C1 C12C2 C22C4"/>
 </vehicle>
 <vehicle id="civilian_6519" type="civilian" depart="35.90">
  <route edges="E22C4 C42C2 C22C1"/>
 </vehicle>
 <vehicle id="civilian_7358" type="civilian" depart="36.00">
  <route edges="W22C2 C22C4"/>
 </vehicle>
 <vehicle id="civilian_5011" type="civilian" depart="36.47">
  <route edges="N12C1 C12C3 C32C4 C42C2"/>
 </vehicle>
 <vehicle id="civilian_2094" type="civilian" depart="36.65">
  <route edges="C42C3 C32C1 C12C2 C22C4"/>
 </vehicle>
 <vehicle id="civilian_8606" type="civilian" depart="36.86">
  <route edges="N22C3 C32C1 C12C2 C22C4"/>
 </vehicle>
 <vehicle id="civilian_6759" type="civilian" depart="37.29">
  <route edges="W12C1 C12C2 C22C4 C42C3 C32C1"/>
 </vehicle>
 <vehicle id="civilian_6942" type="civilian" depart="39.34">
  <route edges="N12C1 C12C2"/>
 </vehicle>
 <vehicle id="civilian_1187" type="civilian" depart="39.75">
  <route edges="C22C4 C42C3"/>
 </vehicle>
 <vehicle id="civilian_157" type="civilian" depart="40.23">
  <route edges="S12C2 C22C4 C42C3"/>
 </vehicle>
 <vehicle id="civilian_3237" type="civilian" depart="40.53">
  <route edges="C42C2 C22C1 C12C3"/>
 </vehicle>
 <vehicle id="civilian_1338" type="civilian" depart="41.17">
  <route edges="E22C4 C42C3 C32C1"/>
 </vehicle>
 <vehicle id="civilian_8617" type="civilian" depart="42.49">
  <route edges="W12C1 C12C3"/>
 </vehicle>
 <vehicle id="civilian_9598" type="civilian" depart="43.08">
  <route edges="N12C1 C12C3 C32C4"/>
 </vehicle>
 <vehicle id="civilian_4577" type="civilian" depart="43.30">
  <route edges="S22C4 C42C2 C22C1 C12C3"/>
 </vehicle>
 <vehicle id="civilian_9889" type="civilian" depart="43.69">
  <route edges="E12C3 C32C1 C12C2"/>
 </vehicle>
 <vehicle id="civilian_375" type="civilian" depart="45.40">
  <route edges="C22C1 C12C3"/>
 </vehicle>
 <vehicle id="civilian_8880" type="civilian" depart="46.62">
  <route edges="S12C2 C22C4 C42C3 C32C1"/>
 </vehicle>
 <vehicle id="civilian_5681" type="civilian" depart="47.34">
  <route edges="C12C2 C22C4 C42C3"/>
 </vehicle>
 <vehicle id="civilian_71" type="civilian" depart="47.46">
  <route edges="S22C4 C42C3 C32C1"/>
 </vehicle>
 <vehicle id="civilian_2421" type="civilian" depart="47.73">
  <route edges="S12C2 C22C1"/>
 </vehicle>
 <vehicle id="civilian_7460" type="civilian" depart="47.92">
  <route edges="C42C2 C22C1 C12C3 C32C4"/>
 </vehicle>
 <vehicle id="civilian_790" type="civilian" depart="49.58">
  <route edges="E12C3 C32C4 C42C2 C22C1 C12C3"/>
 </vehicle>
 <vehicle id="civilian_4161" type="civilian" depart="49.75">
  <route edges="C32C1 C12C2 C22C4 C42C3"/>
 </vehicle>
 <vehicle id="civilian_8726" type="civilian" depart="50.74">
  <route edges="S12C2 C22C1 C12C3 C32C4"/>
 </vehicle>
 <vehicle id="civilian_2621" type="civilian" depart="52.02">
  <route edges="N22C3 C32C4 C42C2"/>
 </vehicle>
 <vehicle id="civilian_4716" type="civilian" depart="52.66">
  <route edges="E12C3 C32C1 C12C2 C22C4 C42C3"/>
 </vehicle>
 <vehicle id="civilian_6998" type="civilian" depart="52.82">
  <route edges="S22C4 C42C2 C22C1 C12C3 C32C4"/>
 </vehicle>
 <vehicle id="civilian_1102" type="civilian" depart="52.96">
  <route edges="C42C2 C22C1 C12C3 C32C4"/>
 </vehicle>
 <vehicle id="civilian_3733" type="civilian" depart="53.64">
  <route edges="S22C4 C42C3"/>
 </vehicle>
 <vehicle id="civilian_1469" type="civilian" depart="55.04">
  <route edges="N12C1 C12C2 C22C4 C42C3 C32C1"/>
 </vehicle>
 <vehicle id="civilian_6227" type="civilian" depart="55.11">
  <route edges="S22C4 C42C2 C22C1 C12C3"/>
 </vehicle>
 <vehicle id="civilian_175" type="civilian" depart="55.53">
  <route edges="S12C2 C22C1"/>
 </vehicle>
 <vehicle id="civilian_2413" type="civilian" depart="57.32">
  <route edges="S22C4 C42C2"/>
 </vehicle>
 <vehicle id="civilian_9819" type="civilian" depart="59.75">
  <route edges="N22C3 C32C4 C42C2 C22C1"/>
 </vehicle>
 <vehicle id="civilian_2422" type="civilian" depart="59.79">
  <route edges="E22C4 C42C3"/>
 </vehicle>
 <vehicle id="civilian_962" type="civilian" depart="60.20">
  <route edges="W22C2 C22C1 C12C3"/>
 </vehicle>
 <vehicle id="civilian_6377" type="civilian" depart="60.31">
  <route edges="E12C3 C32C1"/>
 </vehicle>
 <vehicle id="civilian_5724" type="civilian" depart="60.50">
  <route edges="W12C1 C12C3"/>
 </vehicle>
 <vehicle id="civilian_9521" type="civilian" depart="61.13">
  <route edges="E22C4 C42C3"/>
 </vehicle>
 <vehicle id="civilian_6492" type="civilian" depart="62.78">
  <route edges="C12C3 C32C4 C42C2"/>
 </vehicle>
 <vehicle id="civilian_9602" type="civilian" depart="63.80">
  <route edges="S22C4 C42C3 C32C1 C12C2"/>
 </vehicle>
 <vehicle id="civilian_7422" type="civilian" depart="64.91">
  <route edges="C32C1 C12C2 C22C4 C42C3"/>
 </vehicle>
 <vehicle id="civilian_5856" type="civilian" depart="65.31">
  <route edges="E12C3 C32C4"/>
 </vehicle>
 <vehicle id="civilian_4803" type="civilian" depart="65.79">
  <route edges="W12C1 C12C2 C22C4"/>
 </vehicle>
 <vehicle id="civilian_6991" type="civilian" depart="66.06">
  <route edges="N22C3 C32C4 C42C2"/>
 </vehicle>
 <vehicle id="civilian_1032" type="civilian" depart="66.07">
  <route edges="C12C3 C32C4 C42C2 C22C1"/>
 </vehicle>
 <vehicle id="civilian_7807" type="civilian" depart="67.10">
  <route edges="N22C3 C32C4 C42C2"/>
 </vehicle>
 <vehicle id="civilian_5359" type="civilian" depart="67.11">
  <route edges="C22C4 C42C3"/>
 </vehicle>
 <vehicle id="civilian_6165" type="civilian" depart="67.41">
  <route edges="N22C3 C32C4 C42C2 C22C1"/>
 </vehicle>
 <vehicle id="civilian_9875" type="civilian" depart="67.49">
  <route edges="W22C2 C22C4 C42C3"/>
 </vehicle>
 <vehicle id="civilian_8744" type="civilian" depart="67.51">
  <route edges="W22C2 C22C1 C12C3 C32C4 C42C2"/>
 </vehicle>
 <vehicle id="civilian_5493" type="civilian" depart="67.68">
  <route edges="S12C2 C22C4 C42C3 C32C1 C12C2"/>
 </vehicle>
 <vehicle id="civilian_1771" type="civilian" depart="68.96">
  <route edges="W22C2 C22C1 C12C3 C32C4"/>
 </vehicle>
 <vehicle id="civilian_1116" type="civilian" depart="70.29">
  <route edges="W22C2 C22C1 C12C3 C32C4 C42C2"/>
 </vehicle>
 <vehicle id="civilian_6069" type="civilian" depart="71.53">
  <route edges="W12C1 C12C3 C32C4"/>
 </vehicle>
 <vehicle id="civilian_5786" type="civilian" depart="72.07">
  <route edges="S22C4 C42C2 C22C1 C12C3 C32C4"/>
 </vehicle>
 <vehicle id="civilian_5412" type="civilian" depart="72.23">
  <route edges="E22C4 C42C3 C32C1"/>
 </vehicle>
 <vehicle id="civilian_424" type="civilian" depart="72.32">
  <route edges="C22C1 C12C3 C32C4"/>
 </vehicle>
 <vehicle id="civilian_922" type="civilian" depart="72.48">
  <route edges="S22C4 C42C3"/>
 </vehicle>
 <vehicle id="civilian_710" type="civilian" depart="73.45">
  <route edges="C42C2 C22C1 C12C3 C32C4"/>
 </vehicle>
 <vehicle id="civilian_9931" type="civilian" depart="74.76">
  <route edges="C22C1 C12C3 C32C4 C42C2"/>
 </vehicle>
 <vehicle id="civilian_6458" type="civilian" depart="75.48">
  <route edges="S22C4 C42C2 C22C1 C12C3"/>
 </vehicle>
 <vehicle id="civilian_9739" type="civilian" depart="75.52">
  <route edges="C12C3 C32C4 C42C2"/>
 </vehicle>
 <vehicle id="civilian_4171" type="civilian" depart="77.47">
  <route edges="N22C3 C32C4 C42C2 C22C1 C12C3"/>
 </vehicle>
 <vehicle id="civilian_4821" type="civilian" depart="77.97">
  <route edges="C42C2 C22C1 C12C3 C32C4"/>
 </vehicle>
 <vehicle id="civilian_7668" type="civilian" depart="78.67">
  <route edges="N12C1 C12C3 C32C4 C42C2"/>
 </vehicle>
 <vehicle id="civilian_577" type="civilian" depart="79.82">
  <route edges="S22C4 C42C3"/>
 </vehicle>
 <vehicle id="civilian_2597" type="civilian" depart="80.35">
  <route edges="N12C1 C12C3 C32C4 C42C2"/>
 </vehicle>
 <vehicle id="civilian_5564" type="civilian" depart="81.01">
  <route edges="S12C2 C22C4 C42C3 C32C1"/>
 </vehicle>
 <vehicle id="civilian_1008" type="civilian" depart="81.26">
  <route edges="C42C2 C22C1 C12C3"/>
 </vehicle>
 <vehicle id="civilian_1550" type="civilian" depart="81.44">
  <route edges="N12C1 C12C3"/>
 </vehicle>
 <vehicle id="civilian_2623" type="civilian" depart="81.72">
  <route edges="N22C3 C32C4 C42C2"/>
 </vehicle>
 <vehicle id="civilian_408" type="civilian" depart="81.87">
  <route edges="S12C2 C22C1 C12C3 C32C4 C42C2"/>
 </vehicle>
 <vehicle id="civilian_2581" type="civilian" depart="81.97">
  <route edges="S12C2 C22C1 C12C3 C32C4"/>
 </vehicle>
 <vehicle id="civilian_581" type="civilian" depart="82.94">
  <route edges="S22C4 C42C2"/>
 </vehicle>
 <vehicle id="civilian_9791" type="civilian" depart="83.21">
  <route edges="N12C1 C12C2 C22C4"/>
 </vehicle>
 <vehicle id="civilian_9013" type="civilian" depart="83.82">
  <route edges="E12C3 C32C1 C12C2"/>
 </vehicle>
 <vehicle id="civilian_1553" type="civilian" depart="84.26">
  <route edges="W12C1 C12C2 C22C4 C42C3"/>
 </vehicle>
 <vehicle id="civilian_935" type="civilian" depart="85.59">
  <route edges="C22C1 C12C3 C32C4"/>
 </vehicle>
 <vehicle id="civilian_1988" type="civilian" depart="86.98">
  <route edges="S12C2 C22C1 C12C3"/>
 </vehicle>
 <vehicle id="civilian_1722" type="civilian" depart="87.10">
  <route edges="W12C1 C12C2"/>
 </vehicle>
 <vehicle id="civilian_3676" type="civilian" depart="87.26">
  <route edges="C22C4 C42C3"/>
 </vehicle>
 <vehicle id="civilian_4835" type="civilian" depart="87.26">
  <route edges="E22C4 C42C2 C22C1 C12C3 C32C4"/>
 </vehicle>
 <vehicle id="civilian_8374" type="civilian" depart="88.36">
  <route edges="E22C4 C42C2"/>
 </vehicle>
 <vehicle id="civilian_5839" type="civilian" depart="88.72">
  <route edges="N22C3 C32C1 C12C2 C22C4"/>
 </vehicle>
 <vehicle id="civilian_9349" type="civilian" depart="89.09">
  <route edges="E22C4 C42C3"/>
 </vehicle>
 <vehicle id="civilian_1242" type="civilian" depart="89.95">
  <route edges="E22C4 C42C2 C22C1 C12C3 C32C4"/>
 </vehicle>
 <vehicle id="civilian_5855" type="civilian" depart="90.27">
  <route edges="C22C4 C42C3"/>
 </vehicle>
 <vehicle id="civilian_9372" type="civilian" depart="91.03">
  <route edges="W22C2 C22C4 C42C3 C32C1 C12C2"/>
 </vehicle>
 <vehicle id="civilian_6452" type="civilian" depart="92.70">
  <route edges="N12C1 C12C3"/>
 </vehicle>
 <vehicle id="civilian_5156" type="civilian" depart="93.05">
  <route edges="E22C4 C42C2 C22C1 C12C3 C32C4"/>
 </vehicle>
 <vehicle id="civilian_4140" type="civilian" depart="94.28">
  <route edges="W22C2 C22C4 C42C3 C32C1"/>
 </vehicle>
 <vehicle id="civilian_3177" type="civilian" depart="95.17">
  <route edges="N12C1 C12C2"/>
 </vehicle>
 <vehicle id="civilian_7475" type="civilian" depart="95.64">
  <route edges="S22C4 C42C2"/>
 </vehicle>
 <vehicle id="civilian_5206" type="civilian" depart="96.13">
  <route edges="E22C4 C42C2 C22C1 C12C3 C32C4"/>
 </vehicle>
 <vehicle id="civilian_3230" type="civilian" depart="96.34">
  <route edges="N22C3 C32C4"/>
 </vehicle>
 <vehicle id="civilian_5818" type="civilian" depart="97.61">
  <route edges="C32C4 C42C2"/>
 </vehicle>
 <vehicle id="civilian_1232" type="civilian" depart="98.21">
  <route edges="C12C3 C32C4 C42C2 C22C1"/>
 </vehicle>
 <vehicle id="emergency_1725" type="emergency" depart="100.43">
  <route edges="W22C2 C22C4"/>
 </vehicle>
 <vehicle id="civilian_8587" type="civilian" depart="101.30">
  <route edges="C12C3 C32C4 C42C2 C22C1"/>
 </vehicle>
 <vehicle id="emergency_1952" type="emergency" depart="101.52">
  <route edges="W22C2 C22C4"/>
 </vehicle>
 <vehicle id="civilian_6712" type="civilian" depart="101.65">
  <route edges="C12C2 C22C4"/>
 </vehicle>
 <vehicle id="civilian_6155" type="civilian" depart="102.12">
  <route edges="N22C3 C32C4 C42C2 C22C1 C12C3"/>
 </vehicle>
 <vehicle id="civilian_3867" type="civilian" depart="102.60">
  <route edges="C32C4 C42C2 C22C1 C12C3"/>
 </vehicle>
 <vehicle id="civilian_6679" type="civilian" depart="103.41">
  <route edges="C32C4 C42C2 C22C1 C12C3"/>
 </vehicle>
 <vehicle id="emergency_250" type="emergency" depart="104.93">
  <route edges="C42C3 C32C1"/>
 </vehicle>
 <vehicle id="emergency_947" type="emergency" depart="105.12">
  <route edges="N22C3 C32C4 C42C2 C22C1"/>
 </vehicle>
 <vehicle id="civilian_6951" type="civilian" depart="105.33">
  <route edges="W12C1 C12C2 C22C4 C42C3"/>
 </vehicle>
 <vehicle id="emergency_1864" type="emergency" depart="105.36">
  <route edges="E22C4 C42C2 C22C1"/>
 </vehicle>
 <vehicle id="civilian_8153" type="civilian" depart="106.09">
  <route edges="C42C2 C22C1"/>
 </vehicle>
 <vehicle id="civilian_5465" type="civilian" depart="106.39">
  <route edges="S12C2 C22C1 C12C3 C32C4 C42C2"/>
 </vehicle>
 <vehicle id="civilian_565" type="civilian" depart="106.65">
  <route edges="E12C3 C32C1 C12C2"/>
 </vehicle>
 <vehicle id="emergency_1888" type="emergency" depart="107.42">
  <route edges="S22C4 C42C2 C22C1"/>
 </vehicle>
 <vehicle id="emergency_709" type="emergency" depart="108.01">
  <route edges="C42C3 C32C1 C12C2"/>
 </vehicle>
 <vehicle id="civilian_6924" type="civilian" depart="108.28">
  <route edges="C42C2 C22C1 C12C3 C32C4"/>
 </vehicle>
 <vehicle id="emergency_506" type="emergency" depart="108.96">
  <route edges="S22C4 C42C2 C22C1 C12C3"/>
 </vehicle>
 <vehicle id="civilian_1934" type="civilian" depart="111.30">
  <route edges="C22C1 C12C3"/>
 </vehicle>
 <vehicle id="civilian_9416" type="civilian" depart="111.94">
  <route edges="N22C3 C32C4 C42C2"/>
 </vehicle>
 <vehicle id="civilian_1570" type="civilian" depart="112.03">
  <route edges="N12C1 C12C3 C32C4 C42C2 C22C1"/>
 </vehicle>
 <vehicle id="emergency_1216" type="emergency" depart="112.13">
  <route edges="C42C2 C22C1 C12C3 C32C4"/>
 </vehicle>
 <vehicle id="emergency_25" type="emergency" depart="112.15">
  <route edges="S22C4 C42C2"/>
 </vehicle>
 <vehicle id="civilian_9455" type="civilian" depart="114.07">
  <route edges="C22C1 C12C3 C32C4 C42C2"/>
 </vehicle>
 <vehicle id="civilian_9196" type="civilian" depart="114.19">
  <route edges="N12C1 C12C3"/>
 </vehicle>
 <vehicle id="emergency_313" type="emergency" depart="114.45">
  <route edges="C32C4 C42C2 C22C1 C12C3"/>
 </vehicle>
 <vehicle id="civilian_6955" type="civilian" depart="114.55">
  <route edges="W12C1 C12C3 C32C4"/>
 </vehicle>
 <vehicle id="civilian_7145" type="civilian" depart="114.79">
  <route edges="W12C1 C12C3 C32C4 C42C2"/>
 </vehicle>
 <vehicle id="civilian_8057" type="civilian" depart="116.22">
  <route edges="N22C3 C32C4 C42C2"/>
 </vehicle>
 <vehicle id="civilian_2888" type="civilian" depart="116.78">
  <route edges="C12C2 C22C4"/>
 </vehicle>
 <vehicle id="civilian_3852" type="civilian" depart="117.69">
  <route edges="E12C3 C32C1 C12C2 C22C4"/>
 </vehicle>
 <vehicle id="civilian_7545" type="civilian" depart="117.80">
  <route edges="S22C4 C42C3 C32C1"/>
 </vehicle>
 <vehicle id="civilian_8214" type="civilian" depart="118.17">
  <route edges="N22C3 C32C1 C12C2 C22C4"/>
 </vehicle>
 <vehicle id="civilian_4770" type="civilian" depart="118.51">
  <route edges="E12C3 C32C1 C12C2 C22C4 C42C3"/>
 </vehicle>
 <vehicle id="civilian_1927" type="civilian" depart="119.43">
  <route edges="E12C3 C32C4"/>
 </vehicle>
 <vehicle id="emergency_1713" type="emergency" depart="120.81">
  <route edges="C42C3 C32C1 C12C2"/>
 </vehicle>
 <vehicle id="civilian_334" type="civilian" depart="121.97">
  <route edges="W22C2 C22C4"/>
 </vehicle>
 <vehicle id="civilian_1933" type="civilian" depart="122.07">
  <route edges="N12C1 C12C2 C22C4"/>
 </vehicle>
 <vehicle id="civilian_7736" type="civilian" depart="123.03">
  <route edges="E12C3 C32C4 C42C2"/>
 </vehicle>
 <vehicle id="civilian_7412" type="civilian" depart="126.08">
  <route edges="N22C3 C32C1 C12C2"/>
 </vehicle>
 <vehicle id="civilian_9042" type="civilian" depart="126.26">
  <route edges="N12C1 C12C2 C22C4 C42C3"/>
 </vehicle>
 <vehicle id="civilian_9798" type="civilian" depart="128.39">
  <route edges="W12C1 C12C3"/>
 </vehicle>
 <vehicle id="civilian_7313" type="civilian" depart="128.58">
  <route edges="S12C2 C22C4 C42C3"/>
 </vehicle>
 <vehicle id="civilian_101" type="civilian" depart="128.58">
  <route edges="N22C3 C32C4 C42C2"/>
 </vehicle>
 <vehicle id="civilian_2432" type="civilian" depart="129.07">
  <route edges="S22C4 C42C2 C22C1 C12C3"/>
 </vehicle>
 <vehicle id="emergency_686" type="emergency" depart="131.14">
  <route edges="S22C4 C42C3 C32C1 C12C2 C22C4"/>
 </vehicle>
 <vehicle id="emergency_1021" type="emergency" depart="131.38">
  <route edges="E12C3 C32C1 C12C2"/>
 </vehicle>
 <vehicle id="civilian_7002" type="civilian" depart="131.59">
  <route edges="W22C2 C22C1 C12C3 C32C4 C42C2"/>
 </vehicle>
 <vehicle id="civilian_1764" type="civilian" depart="131.80">
  <route edges="C32C4 C42C2"/>
 </vehicle>
 <vehicle id="civilian_7775" type="civilian" depart="132.81">
  <route edges="C22C4 C42C3 C32C1 C12C2"/>
 </vehicle>
 <vehicle id="emergency_1006" type="emergency" depart="134.35">
  <route edges="S22C4 C42C3 C32C1 C12C2 C22C4"/>
 </vehicle>
 <vehicle id="civilian_2279" type="civilian" depart="134.49">
  <route edges="N12C1 C12C2 C22C4 C42C3"/>
 </vehicle>
 <vehicle id="civilian_1765" type="civilian" depart="135.19">
  <route edges="E12C3 C32C1"/>
 </vehicle>
 <vehicle id="civilian_7606" type="civilian" depart="135.43">
  <route edges="E22C4 C42C2 C22C1 C12C3 C32C4"/>
 </vehicle>
 <vehicle id="civilian_287" type="civilian" depart="136.05">
  <route edges="N12C1 C12C3 C32C4 C42C2 C22C1"/>
 </vehicle>
 <vehicle id="civilian_5817" type="civilian" depart="137.07">
  <route edges="C12C3 C32C4 C42C2"/>
 </vehicle>
 <vehicle id="civilian_7851" type="civilian" depart="138.20">
  <route edges="C22C4 C42C3 C32C1 C12C2"/>
 </vehicle>
 <vehicle id="civilian_3338" type="civilian" depart="138.71">
  <route edges="E12C3 C32C1"/>
 </vehicle>
 <vehicle id="civilian_4582" type="civilian" depart="139.83">
  <route edges="W12C1 C12C2"/>
 </vehicle>
 <vehicle id="civilian_8356" type="civilian" depart="141.79">
  <route edges="C22C1 C12C3 C32C4"/>
 </vehicle>
 <vehicle id="civilian_1789" type="civilian" depart="142.50">
  <route edges="N22C3 C32C1 C12C2 C22C4"/>
 </vehicle>
 <vehicle id="emergency_1120" type="emergency" depart="142.68">
  <route edges="S22C4 C42C2 C22C1 C12C3"/>
 </vehicle>
 <vehicle id="civilian_8260" type="civilian" depart="143.06">
  <route edges="C32C4 C42C2"/>
 </vehicle>
 <vehicle id="civilian_7390" type="civilian" depart="143.46">
  <route edges="E12C3 C32C1 C12C2 C22C4 C42C3"/>
 </vehicle>
 <vehicle id="civilian_2781" type="civilian" depart="143.50">
  <route edges="E22C4 C42C2 C22C1 C12C3 C32C4"/>
 </vehicle>
 <vehicle id="civilian_4286" type="civilian" depart="143.62">
  <route edges="C32C1 C12C2 C22C4"/>
 </vehicle>
 <vehicle id="civilian_5932" type="civilian" depart="144.09">
  <route edges="N12C1 C12C2 C22C4 C42C3 C32C1"/>
 </vehicle>
 <vehicle id="civilian_9197" type="civilian" depart="144.22">
  <route edges="C12C2 C22C4"/>
 </vehicle>
 <vehicle id="civilian_7447" type="civilian" depart="144.55">
  <route edges="C22C4 C42C3 C32C1"/>
 </vehicle>
 <vehicle id="civilian_7912" type="civilian" depart="144.89">
  <route edges="W12C1 C12C2 C22C4 C42C3"/>
 </vehicle>
 <vehicle id="civilian_1691" type="civilian" depart="145.18">
  <route edges="C22C4 C42C3"/>
 </vehicle>
 <vehicle id="civilian_3081" type="civilian" depart="146.98">
  <route edges="S12C2 C22C1"/>
 </vehicle>
 <vehicle id="civilian_97" type="civilian" depart="147.16">
  <route edges="C42C2 C22C1 C12C3"/>
 </vehicle>
 <vehicle id="civilian_1458" type="civilian" depart="147.45">
  <route edges="C22C4 C42C3"/>
 </vehicle>
 <vehicle id="civilian_7146" type="civilian" depart="148.00">
  <route edges="W22C2 C22C4 C42C3 C32C1 C12C2"/>
 </vehicle>
 <vehicle id="emergency_1152" type="emergency" depart="148.11">
  <route edges="C22C4 C42C3 C32C1"/>
 </vehicle>
 <vehicle id="civilian_3839" type="civilian" depart="148.13">
  <route edges="C22C4 C42C3"/>
 </vehicle>
 <vehicle id="emergency_516" type="emergency" depart="148.33">
  <route edges="N12C1 C12C3 C32C4"/>
 </vehicle>
 <vehicle id="civilian_1064" type="civilian" depart="148.93">
  <route edges="W22C2 C22C1 C12C3"/>
 </vehicle>
 <vehicle id="civilian_4688" type="civilian" depart="150.55">
  <route edges="C22C1 C12C3 C32C4 C42C2"/>
 </vehicle>
 <vehicle id="civilian_8798" type="civilian" depart="150.55">
  <route edges="E12C3 C32C4 C42C2 C22C1"/>
 </vehicle>
 <vehicle id="civilian_1677" type="civilian" depart="151.03">
  <route edges="C42C3 C32C1 C12C2"/>
 </vehicle>
 <vehicle id="civilian_489" type="civilian" depart="151.64">
  <route edges="N22C3 C32C4 C42C2 C22C1 C12C3"/>
 </vehicle>
 <vehicle id="civilian_358" type="civilian" depart="152.24">
  <route edges="C12C2 C22C4 C42C3"/>
 </vehicle>
 <vehicle id="civilian_9454" type="civilian" depart="155.05">
  <route edges="S22C4 C42C2"/>
 </vehicle>
 <vehicle id="emergency_1412" type="emergency" depart="155.24">
  <route edges="E22C4 C42C2 C22C1 C12C3 C32C4"/>
 </vehicle>
 <vehicle id="emergency_1129" type="emergency" depart="155.50">
  <route edges="W12C1 C12C2 C22C4 C42C3 C32C1"/>
 </vehicle>
 <vehicle id="civilian_5645" type="civilian" depart="155.89">
  <route edges="C42C3 C32C1 C12C2"/>
 </vehicle>
 <vehicle id="civilian_8432" type="civilian" depart="155.98">
  <route edges="N22C3 C32C4 C42C2 C22C1"/>
 </vehicle>
 <vehicle id="civilian_9183" type="civilian" depart="156.10">
  <route edges="C12C3 C32C4"/>
 </vehicle>
 <vehicle id="civilian_2646" type="civilian" depart="157.10">
  <route edges="E12C3 C32C1"/>
 </vehicle>
 <vehicle id="civilian_6385" type="civilian" depart="157.21">
  <route edges="C22C4 C42C3"/>
 </vehicle>
 <vehicle id="civilian_3405" type="civilian" depart="157.84">
  <route edges="N12C1 C12C2 C22C4"/>
 </vehicle>
 <vehicle id="emergency_1801" type="emergency" depart="157.85">
  <route edges="N12C1 C12C2 C22C4 C42C3"/>
 </vehicle>
 <vehicle id="emergency_81" type="emergency" depart="158.52">
  <route edges="N12C1 C12C2 C22C4 C42C3"/>
 </vehicle>
 <vehicle id="civilian_3624" type="civilian" depart="158.89">
  <route edges="S22C4 C42C3"/>
 </vehicle>
 <vehicle id="civilian_3797" type="civilian" depart="158.98">
  <route edges="E22C4 C42C2 C22C1 C12C3 C32C4"/>
 </vehicle>
 <vehicle id="emergency_1739" type="emergency" depart="160.96">
  <route edges="E22C4 C42C3"/>
 </vehicle>
 <vehicle id="civilian_5311" type="civilian" depart="161.25">
  <route edges="S22C4 C42C3 C32C1"/>
 </vehicle>
 <vehicle id="civilian_6776" type="civilian" depart="161.87">
  <route edges="S22C4 C42C3 C32C1 C12C2"/>
 </vehicle>
 <vehicle id="civilian_9974" type="civilian" depart="162.06">
  <route edges="S12C2 C22C1 C12C3"/>
 </vehicle>
 <vehicle id="civilian_5047" type="civilian" depart="162.57">
  <route edges="C32C1 C12C2"/>
 </vehicle>
 <vehicle id="civilian_4902" type="civilian" depart="162.60">
  <route edges="E12C3 C32C1 C12C2"/>
 </vehicle>
 <vehicle id="emergency_1583" type="emergency" depart="162.65">
  <route edges="S22C4 C42C3"/>
 </vehicle>
 <vehicle id="emergency_592" type="emergency" depart="162.77">