<?xml version="1.0" ?>
<routes>
   <vType id="civilian" accel="2.6" decel="4.5" sigma="0.5" length="5" maxSpeed="13.89" color="0,1,0"/>
   <vType id="emergency" vClass="emergency" accel="3.5" decel="5.0" sigma="0" length="7" maxSpeed="20" color="1,0,0" guiShape="emergency">
      <param key="has.bluelight.device" value="true"/>
   </vType>
   <vehicle id="civilian_603" type="civilian" depart="5.216926394971733">
      <route edges="E_C C_S"/>
   </vehicle>
   <vehicle id="civilian_277" type="civilian" depart="8.045304388725372">
      <route edges="S_C C_N"/>
   </vehicle>
   <vehicle id="civilian_884" type="civilian" depart="9.576390401658585">
      <route edges="W_C C_S"/>
   </vehicle>
   <vehicle id="civilian_8" type="civilian" depart="11.103053745089175">
      <route edges="E_C C_N"/>
   </vehicle>
   <vehicle id="civilian_204" type="civilian" depart="14.48027092686428">
      <route edges="E_C C_W"/>
   </vehicle>
   <vehicle id="civilian_135" type="civilian" depart="16.48017322200479">
      <route edges="S_C C_N"/>
   </vehicle>
   <vehicle id="civilian_393" type="civilian" depart="17.111741638146285">
      <route edges="E_C C_S"/>
   </vehicle>
   <vehicle id="civilian_494" type="civilian" depart="18.161151546480838">
      <route edges="N_C C_W"/>
   </vehicle>
   <vehicle id="civilian_655" type="civilian" depart="20.249111538004794">
      <route edges="E_C C_S"/>
   </vehicle>
   <vehicle id="civilian_960" type="civilian" depart="24.53734240469747">
      <route edges="E_C C_S"/>
   </vehicle>
   <vehicle id="civilian_262" type="civilian" depart="25.873985696422118">
      <route edges="S_C C_W"/>
   </vehicle>
   <vehicle id="civilian_771" type="civilian" depart="30.445594363143513">
      <route edges="E_C C_S"/>
   </vehicle>
   <vehicle id="civilian_219" type="civilian" depart="30.87049634364778">
      <route edges="W_C C_E"/>
   </vehicle>
   <vehicle id="civilian_459" type="civilian" depart="33.15156302918463">
      <route edges="E_C C_N"/>
   </vehicle>
   <vehicle id="civilian_90" type="civilian" depart="42.24232531658423">
      <route edges="E_C C_N"/>
   </vehicle>
   <vehicle id="civilian_355" type="civilian" depart="45.4636197163659">
      <route edges="E_C C_W"/>
   </vehicle>
   <vehicle id="civilian_117" type="civilian" depart="47.03406501811007">
      <route edges="N_C C_W"/>
   </vehicle>
   <vehicle id="civilian_158" type="civilian" depart="48.10162245572074">
      <route edges="S_C C_W"/>
   </vehicle>
   <vehicle id="civilian_289" type="civilian" depart="49.72783311362852">
      <route edges="E_C C_W"/>
   </vehicle>
   <vehicle id="civilian_370" type="civilian" depart="52.10668929683564">
      <route edges="N_C C_W"/>
   </vehicle>
   <vehicle id="civilian_807" type="civilian" depart="56.7911008371238">
      <route edges="E_C C_W"/>
   </vehicle>
   <vehicle id="civilian_657" type="civilian" depart="57.962728406594664">
      <route edges="W_C C_S"/>
   </vehicle>
   <vehicle id="civilian_665" type="civilian" depart="62.08361338615012">
      <route edges="E_C C_W"/>
   </vehicle>
   <vehicle id="civilian_605" type="civilian" depart="69.73644959488574">
      <route edges="N_C C_W"/>
   </vehicle>
   <vehicle id="civilian_504" type="civilian" depart="81.93284821297304">
      <route edges="W_C C_E"/>
   </vehicle>
   <vehicle id="civilian_350" type="civilian" depart="88.9970410145145">
      <route edges="S_C C_N"/>
   </vehicle>
   <vehicle id="civilian_177" type="civilian" depart="89.40348822756494">
      <route edges="W_C C_S"/>
   </vehicle>
   <vehicle id="civilian_155" type="civilian" depart="92.46742956685074">
      <route edges="S_C C_E"/>
   </vehicle>
   <vehicle id="civilian_638" type="civilian" depart="97.60611652797041">
      <route edges="N_C C_E"/>
   </vehicle>
   <vehicle id="civilian_222" type="civilian" depart="98.21199420312455">
      <route edges="E_C C_W"/>
   </vehicle>
   <vehicle id="civilian_281" type="civilian" depart="101.23424158434506">
      <route edges="N_C C_E"/>
   </vehicle>
   <vehicle id="civilian_54" type="civilian" depart="102.3688323273738">
      <route edges="E_C C_N"/>
   </vehicle>
   <vehicle id="civilian_98" type="civilian" depart="104.0838267621072">
      <route edges="N_C C_W"/>
   </vehicle>
   <vehicle id="civilian_946" type="civilian" depart="105.73869557090454">
      <route edges="E_C C_S"/>
   </vehicle>
   <vehicle id="civilian_885" type="civilian" depart="105.82360761940102">
      <route edges="E_C C_W"/>
   </vehicle>
   <vehicle id="civilian_183" type="civilian" depart="107.06212086645479">
      <route edges="N_C C_E"/>
   </vehicle>
   <vehicle id="emergency_193" type="emergency" depart="108.13587471942732">
      <route edges="E_C C_W"/>
   </vehicle>
   <vehicle id="emergency_170" type="emergency" depart="108.5018644753364">
      <route edges="W_C C_E"/>
   </vehicle>
   <vehicle id="civilian_721" type="civilian" depart="110.26035540408267">
      <route edges="N_C C_S"/>
   </vehicle>
   <vehicle id="civilian_664" type="civilian" depart="110.3916640775827">
      <route edges="W_C C_E"/>
   </vehicle>
   <vehicle id="civilian_251" type="civilian" depart="110.64334354379044">
      <route edges="W_C C_N"/>
   </vehicle>
   <vehicle id="civilian_416" type="civilian" depart="111.80937396643729">
      <route edges="W_C C_N"/>
   </vehicle>
   <vehicle id="civilian_525" type="civilian" depart="118.09802773273081">
      <route edges="W_C C_E"/>
   </vehicle>
   <vehicle id="civilian_313" type="civilian" depart="121.77344158537747">
      <route edges="W_C C_S"/>
   </vehicle>
   <vehicle id="civilian_788" type="civilian" depart="122.23265745710057">
      <route edges="S_C C_E"/>
   </vehicle>
   <vehicle id="civilian_876" type="civilian" depart="124.770828761848">
      <route edges="E_C C_W"/>
   </vehicle>
   <vehicle id="civilian_715" type="civilian" depart="126.00316580874646">
      <route edges="E_C C_W"/>
   </vehicle>
   <vehicle id="emergency_84" type="emergency" depart="133.96254297138603">
      <route edges="W_C C_E"/>
   </vehicle>
   <vehicle id="civilian_775" type="civilian" depart="134.36816326136062">
      <route edges="S_C C_E"/>
   </vehicle>
   <vehicle id="civilian_304" type="civilian" depart="134.7539128246194">
      <route edges="S_C C_E"/>
   </vehicle>
   <vehicle id="emergency_127" type="emergency" depart="140.63976244311624">
      <route edges="N_C C_S"/>
   </vehicle>
   <vehicle id="emergency_92" type="emergency" depart="144.32730026827306">
      <route edges="N_C C_S"/>
   </vehicle>
   <vehicle id="civilian_266" type="civilian" depart="146.3551746541827">
      <route edges="N_C C_W"/>
   </vehicle>
   <vehicle id="civilian_564" type="civilian" depart="149.34087530811792">
      <route edges="W_C C_N"/>
   </vehicle>
   <vehicle id="civilian_694" type="civilian" depart="150.61802640597892">
      <route edges="E_C C_S"/>
   </vehicle>
   <vehicle id="civilian_932" type="civilian" depart="155.94490838338336">
      <route edges="N_C C_E"/>
   </vehicle>
   <vehicle id="civilian_529" type="civilian" depart="158.97234475561993">
      <route edges="W_C C_S"/>
   </vehicle>
   <vehicle id="civilian_690" type="civilian" depart="174.99073620726685">
      <route edges="W_C C_E"/>
   </vehicle>
   <vehicle id="civilian_226" type="civilian" depart="180.40453415969728">
      <route edges="W_C C_E"/>
   </vehicle>
   <vehicle id="civilian_104" type="civilian" depart="181.81280426709097">
      <route edges="E_C C_S"/>
   </vehicle>
   <vehicle id="civilian_602" type="civilian" depart="182.72917812164508">
      <route edges="E_C C_S"/>
   </vehicle>
   <vehicle id="civilian_269" type="civilian" depart="182.96064171858944">
      <route edges="W_C C_E"/>
   </vehicle>
   <vehicle id="civilian_488" type="civilian" depart="185.8669987843902">
      <route edges="N_C C_E"/>
   </vehicle>
   <vehicle id="civilian_278" type="civilian" depart="188.30515581207666">
      <route edges="W_C C_S"/>
   </vehicle>
   <vehicle id="civilian_284" type="civilian" depart="188.75321952924352">
      <route edges="W_C C_E"/>
   </vehicle>
   <vehicle id="civilian_962" type="civilian" depart="189.1884429802521">
      <route edges="N_C C_E"/>
   </vehicle>
   <vehicle id="civilian_169" type="civilian" depart="189.4528415292748">
      <route edges="S_C C_W"/>
   </vehicle>
   <vehicle id="civilian_214" type="civilian" depart="197.49270129024953">
      <route edges="W_C C_N"/>
   </vehicle>
   <vehicle id="civilian_345" type="civilian" depart="202.73754074697683">
      <route edges="N_C C_S"/>
   </vehicle>
   <vehicle id="civilian_271" type="civilian" depart="203.16371643751214">
      <route edges="N_C C_S"/>
   </vehicle>
   <vehicle id="civilian_989" type="civilian" depart="207.59405968898724">
      <route edges="N_C C_S"/>
   </vehicle>
   <vehicle id="civilian_668" type="civilian" depart="216.24468690689156">
      <route edges="N_C C_S"/>
   </vehicle>
   <vehicle id="emergency_35" type="emergency" depart="219.88820943291853">
      <route edges="E_C C_W"/>
   </vehicle>
   <vehicle id="civilian_610" type="civilian" depart="220.08462552540564">
      <route edges="S_C C_E"/>
   </vehicle>
   <vehicle id="civilian_331" type="civilian" depart="225.70972865483353">
      <route edges="N_C C_E"/>
   </vehicle>
   <vehicle id="emergency_52" type="emergency" depart="226.455363767677">
      <route edges="S_C C_N"/>
   </vehicle>
   <vehicle id="civilian_770" type="civilian" depart="228.2617533868235">
      <route edges="E_C C_S"/>
   </vehicle>
   <vehicle id="civilian_976" type="civilian" depart="242.0400645402217">
      <route edges="W_C C_E"/>
   </vehicle>
   <vehicle id="civilian_417" type="civilian" depart="242.67888237012966">
      <route edges="W_C C_S"/>
   </vehicle>
   <vehicle id="civilian_823" type="civilian" depart="252.322976971809">
      <route edges="N_C C_E"/>
   </vehicle>
   <vehicle id="civilian_894" type="civilian" depart="253.5108556054598">
      <route edges="W_C C_S"/>
   </vehicle>
   <vehicle id="civilian_198" type="civilian" depart="256.9932771511282">
      <route edges="S_C C_W"/>
   </vehicle>
   <vehicle id="civilian_616" type="civilian" depart="260.91604886275974">
      <route edges="W_C C_S"/>
   </vehicle>
   <vehicle id="civilian_242" type="civilian" depart="262.76955696962244">
      <route edges="S_C C_N"/>
   </vehicle>
   <vehicle id="civilian_293" type="civilian" depart="270.18706207368206">
      <route edges="W_C C_N"/>
   </vehicle>
   <vehicle id="civilian_375" type="civilian" depart="270.82925815868373">
      <route edges="W_C C_S"/>
   </vehicle>
   <vehicle id="emergency_3" type="emergency" depart="270.8551132465875">
      <route edges="E_C C_W"/>
   </vehicle>
   <vehicle id="civilian_181" type="civilian" depart="278.46872682777655">
      <route edges="N_C C_S"/>
   </vehicle>
   <vehicle id="civilian_311" type="civilian" depart="278.6773610617836">
      <route edges="E_C C_W"/>
   </vehicle>
   <vehicle id="civilian_906" type="civilian" depart="284.0039131562407">
      <route edges="N_C C_W"/>
   </vehicle>
   <vehicle id="civilian_168" type="civilian" depart="292.29757101633663">
      <route edges="E_C C_W"/>
   </vehicle>
   <vehicle id="civilian_701" type="civilian" depart="295.3954528053044">
      <route edges="E_C C_W"/>
   </vehicle>
   <vehicle id="civilian_123" type="civilian" depart="297.2863653450953">
      <route edges="N_C C_S"/>
   </vehicle>
   <vehicle id="civilian_365" type="civilian" depart="302.4401913856606">
      <route edges="N_C C_W"/>
   </vehicle>
   <vehicle id="civilian_826" type="civilian" depart="306.6757530160826">
      <route edges="N_C C_E"/>
   </vehicle>
   <vehicle id="emergency_40" type="emergency" depart="309.7227458988905">
      <route edges="E_C C_W"/>
   </vehicle>
   <vehicle id="civilian_464" type="civilian" depart="310.4629501146473">
      <route edges="S_C C_N"/>
   </vehicle>
   <vehicle id="emergency_61" type="emergency" depart="312.46703154063493">
      <route edges="S_C C_N"/>
   </vehicle>
   <vehicle id="civilian_966" type="civilian" depart="315.85315878457874">
      <route edges="N_C C_E"/>
   </vehicle>
   <vehicle id="civilian_449" type="civilian" depart="319.9798665174465">
      <route edges="N_C C_S"/>
   </vehicle>
   <vehicle id="emergency_74" type="emergency" depart="322.64194231227805">
      <route edges="S_C C_N"/>
   </vehicle>
   <vehicle id="civilian_21" type="civilian" depart="323.33539303479785">
      <route edges="E_C C_W"/>
   </vehicle>
   <vehicle id="civilian_822" type="civilian" depart="328.30253342589396">
      <route edges="E_C C_W"/>
   </vehicle>
   <vehicle id="civilian_995" type="civilian" depart="329.4318325810548">
      <route edges="S_C C_E"/>
   </vehicle>
   <vehicle id="emergency_24" type="emergency" depart="330.34629618931547">
      <route edges="N_C C_S"/>
   </vehicle>
   <vehicle id="civilian_993" type="civilian" depart="331.4817969550785">
      <route edges="N_C C_E"/>
   </vehicle>
   <vehicle id="civilian_29" type="civilian" depart="333.7163747861829">
      <route edges="E_C C_S"/>
   </vehicle>
   <vehicle id="emergency_191" type="emergency" depart="338.36531048503895">
      <route edges="S_C C_N"/>
   </vehicle>
   <vehicle id="civilian_19" type="civilian" depart="343.37572958088145">
      <route edges="W_C C_E"/>
   </vehicle>
   <vehicle id="civilian_542" type="civilian" depart="346.75741262578345">
      <route edges="E_C C_N"/>
   </vehicle>
   <vehicle id="civilian_540" type="civilian" depart="351.4089092493246">
      <route edges="E_C C_W"/>
   </vehicle>
   <vehicle id="civilian_207" type="civilian" depart="354.4441947086207">
      <route edges="N_C C_S"/>
   </vehicle>
   <vehicle id="civilian_626" type="civilian" depart="356.60133909569913">
      <route edges="S_C C_E"/>
   </vehicle>
   <vehicle id="emergency_44" type="emergency" depart="357.0956059516446">
      <route edges="N_C C_S"/>
   </vehicle>
   <vehicle id="civilian_654" type="civilian" depart="364.2464382671295">
      <route edges="E_C C_S"/>
   </vehicle>
   <vehicle id="civilian_553" type="civilian" depart="364.6503573941263">
      <route edges="E_C C_W"/>
   </vehicle>
   <vehicle id="civilian_536" type="civilian" depart="365.8007063295464">
      <route edges="W_C C_N"/>
   </vehicle>
   <vehicle id="civilian_103" type="civilian" depart="369.07010921062636">
      <route edges="S_C C_N"/>
   </vehicle>
   <vehicle id="civilian_873" type="civilian" depart="372.9577160603111">
      <route edges="S_C C_N"/>
   </vehicle>
   <vehicle id="civilian_436" type="civilian" depart="373.0132740601482">
      <route edges="W_C C_N"/>
   </vehicle>
   <vehicle id="civilian_893" type="civilian" depart="376.3614265123762">
      <route edges="S_C C_N"/>
   </vehicle>
   <vehicle id="civilian_839" type="civilian" depart="380.12194162770083">
      <route edges="N_C C_S"/>
   </vehicle>
   <vehicle id="emergency_175" type="emergency" depart="381.0841717953592">
      <route edges="S_C C_N"/>
   </vehicle>
   <vehicle id="civilian_704" type="civilian" depart="383.714395183423">
      <route edges="S_C C_N"/>
   </vehicle>
   <vehicle id="civilian_934" type="civilian" depart="388.48562891203915">
      <route edges="N_C C_S"/>
   </vehicle>
   <vehicle id="emergency_33" type="emergency" depart="396.4694617135433">
      <route edges="E_C C_W"/>
   </vehicle>
   <vehicle id="civilian_917" type="civilian" depart="398.92747122524236">
      <route edges="W_C C_N"/>
   </vehicle>
   <vehicle id="civilian_245" type="civilian" depart="406.2040171309279">
      <route edges="E_C C_W"/>
   </vehicle>
   <vehicle id="emergency_169" type="emergency" depart="407.6247182022824">
      <route edges="N_C C_S"/>
   </vehicle>
   <vehicle id="civilian_404" type="civilian" depart="410.0241653493681">
      <route edges="W_C C_E"/>
   </vehicle>
   <vehicle id="civilian_666" type="civilian" depart="410.1364874861853">
      <route edges="N_C C_W"/>
   </vehicle>
   <vehicle id="civilian_151" type="civilian" depart="416.30689370942355">
      <route edges="N_C C_W"/>
   </vehicle>
   <vehicle id="civilian_328" type="civilian" depart="416.4050441739842">
      <route edges="S_C C_W"/>
   </vehicle>
   <vehicle id="civilian_786" type="civilian" depart="422.36455421929287">
      <route edges="S_C C_E"/>
   </vehicle>
   <vehicle id="civilian_599" type="civilian" depart="422.66484300570204">
      <route edges="W_C C_S"/>
   </vehicle>
   <vehicle id="civilian_246" type="civilian" depart="431.0191201092437">
      <route edges="W_C C_S"/>
   </vehicle>
   <vehicle id="civilian_910" type="civilian" depart="433.62581122386274">
      <route edges="N_C C_S"/>
   </vehicle>
   <vehicle id="civilian_399" type="civilian" depart="434.124922539173">
      <route edges="S_C C_N"/>
   </vehicle>
   <vehicle id="civilian_947" type="civilian" depart="437.89234780035594">
      <route edges="N_C C_E"/>
   </vehicle>
   <vehicle id="civilian_453" type="civilian" depart="439.8175056118544">
      <route edges="N_C C_E"/>
   </vehicle>
   <vehicle id="civilian_451" type="civilian" depart="445.3352050167354">
      <route edges="S_C C_W"/>
   </vehicle>
   <vehicle id="civilian_206" type="civilian" depart="449.5026091890699">
      <route edges="N_C C_E"/>
   </vehicle>
   <vehicle id="civilian_479" type="civilian" depart="450.50381894070495">
      <route edges="W_C C_E"/>
   </vehicle>
   <vehicle id="civilian_864" type="civilian" depart="450.70025221043875">
      <route edges="E_C C_W"/>
   </vehicle>
   <vehicle id="civilian_329" type="civilian" depart="453.1021391528476">
      <route edges="S_C C_W"/>
   </vehicle>
   <vehicle id="emergency_163" type="emergency" depart="454.8740052443171">
      <route edges="E_C C_W"/>
   </vehicle>
   <vehicle id="civilian_635" type="civilian" depart="456.179555212859">
      <route edges="N_C C_E"/>
   </vehicle>
   <vehicle id="civilian_28" type="civilian" depart="459.9706838428625">
      <route edges="N_C C_W"/>
   </vehicle>
   <vehicle id="emergency_22" type="emergency" depart="461.81272198891594">
      <route edges="W_C C_E"/>
   </vehicle>
   <vehicle id="civilian_592" type="civilian" depart="473.76063247172556">
      <route edges="E_C C_S"/>
   </vehicle>
   <vehicle id="civilian_308" type="civilian" depart="474.0999913259773">
      <route edges="N_C C_S"/>
   </vehicle>
   <vehicle id="civilian_398" type="civilian" depart="477.4229111731547">
      <route edges="S_C C_W"/>
   </vehicle>
   <vehicle id="civilian_588" type="civilian" depart="479.863487200933">
      <route edges="W_C C_E"/>
   </vehicle>
   <vehicle id="emergency_184" type="emergency" depart="480.46492608423546">
      <route edges="E_C C_W"/>
   </vehicle>
   <vehicle id="civilian_396" type="civilian" depart="481.66400024811475">
      <route edges="N_C C_E"/>
   </vehicle>
   <vehicle id="emergency_186" type="emergency" depart="482.91650902314205">
      <route edges="E_C C_W"/>
   </vehicle>
   <vehicle id="emergency_105" type="emergency" depart="483.58627929922994">
      <route edges="E_C C_W"/>
   </vehicle>
   <vehicle id="civilian_651" type="civilian" depart="484.52324206146363">
      <route edges="S_C C_N"/>
   </vehicle>
   <vehicle id="civilian_6" type="civilian" depart="486.2211741426334">
      <route edges="N_C C_E"/>
   </vehicle>
   <vehicle id="civilian_595" type="civilian" depart="487.9416184175935">
      <route edges="N_C C_W"/>
   </vehicle>
   <vehicle id="civilian_904" type="civilian" depart="494.26478736255615">
      <route edges="E_C C_W"/>
   </vehicle>
   <vehicle id="civilian_556" type="civilian" depart="497.880154575356">
      <route edges="W_C C_S"/>
   </vehicle>
   <vehicle id="civilian_737" type="civilian" depart="501.3592011135254">
      <route edges="S_C C_W"/>
   </vehicle>
   <vehicle id="civilian_780" type="civilian" depart="504.6247615379748">
      <route edges="W_C C_S"/>
   </vehicle>
   <vehicle id="civilian_146" type="civilian" depart="506.008669294794">
      <route edges="S_C C_W"/>
   </vehicle>
   <vehicle id="civilian_648" type="civilian" depart="516.4792747723228">
      <route edges="E_C C_W"/>
   </vehicle>
   <vehicle id="civilian_511" type="civilian" depart="524.7011239293162">
      <route edges="S_C C_W"/>
   </vehicle>
   <vehicle id="civilian_45" type="civilian" depart="529.6262765958011">
      <route edges="S_C C_W"/>
   </vehicle>
   <vehicle id="civilian_931" type="civilian" depart="530.2133293501366">
      <route edges="W_C C_S"/>
   </vehicle>
   <vehicle id="civilian_496" type="civilian" depart="545.1260232733241">
      <route edges="N_C C_E"/>
   </vehicle>
   <vehicle id="civilian_81" type="civilian" depart="551.6696077437842">
      <route edges="S_C C_W"/>
   </vehicle>
   <vehicle id="civilian_239" type="civilian" depart="560.2180223098642">
      <route edges="N_C C_W"/>
   </vehicle>
   <vehicle id="civilian_734" type="civilian" depart="562.7753899287211">
      <route edges="E_C C_W"/>
   </vehicle>
   <vehicle id="civilian_157" type="civilian" depart="570.1450062221089">
      <route edges="S_C C_N"/>
   </vehicle>
   <vehicle id="civilian_631" type="civilian" depart="571.7030972641207">
      <route edges="N_C C_S"/>
   </vehicle>
   <vehicle id="civilian_940" type="civilian" depart="571.7707808761281">
      <route edges="W_C C_N"/>
   </vehicle>
   <vehicle id="emergency_75" type="emergency" depart="573.5188793956906">
      <route edges="W_C C_E"/>
   </vehicle>
   <vehicle id="civilian_567" type="civilian" depart="577.5470949723259">
      <route edges="E_C C_W"/>
   </vehicle>
   <vehicle id="civilian_915" type="civilian" depart="577.7787045676608">
      <route edges="E_C C_N"/>
   </vehicle>
   <vehicle id="emergency_159" type="emergency" depart="577.9991404673912">
      <route edges="W_C C_E"/>
   </vehicle>
   <vehicle id="civilian_165" type="civilian" depart="583.3106639095622">
      <route edges="W_C C_S"/>
   </vehicle>
   <vehicle id="civilian_194" type="civilian" depart="583.5193898012783">
      <route edges="E_C C_S"/>
   </vehicle>
   <vehicle id="civilian_892" type="civilian" depart="586.7941377653444">
      <route edges="S_C C_N"/>
   </vehicle>
   <vehicle id="civilian_716" type="civilian" depart="590.0439068595848">
      <route edges="E_C C_W"/>
   </vehicle>
   <vehicle id="civilian_846" type="civilian" depart="590.5029684144738">
      <route edges="E_C C_W"/>
   </vehicle>
   <vehicle id="emergency_164" type="emergency" depart="591.0118413151336">
      <route edges="W_C C_E"/>
   </vehicle>
   <vehicle id="civilian_736" type="civilian" depart="592.4019636598103">
      <route edges="N_C C_E"/>
   </vehicle>
   <vehicle id="civilian_565" type="civilian" depart="598.1212148355764">
      <route edges="W_C C_E"/>
   </vehicle>
   <vehicle id="civilian_95" type="civilian" depart="599.4409395271539">
      <route edges="W_C C_E"/>
   </vehicle>
   <vehicle id="civilian_203" type="civilian" depart="605.5736457878768">
      <route edges="E_C C_W"/>
   </vehicle>
   <vehicle id="civilian_642" type="civilian" depart="608.3272255598908">
      <route edges="S_C C_E"/>
   </vehicle>
   <vehicle id="civilian_907" type="civilian" depart="615.5777626462801">
      <route edges="N_C C_E"/>
   </vehicle>
   <vehicle id="civilian_480" type="civilian" depart="615.9585583808329">
      <route edges="E_C C_S"/>
   </vehicle>
   <vehicle id="emergency_172" type="emergency" depart="616.1439310331791">
      <route edges="S_C C_N"/>
   </vehicle>
   <vehicle id="civilian_828" type="civilian" depart="617.5734891329348">
      <route edges="W_C C_E"/>
   </vehicle>
   <vehicle id="civilian_692" type="civilian" depart="621.8889044349104">
      <route edges="E_C C_S"/>
   </vehicle>
   <vehicle id="civilian_4" type="civilian" depart="623.3339634094858">
      <route edges="E_C C_W"/>
   </vehicle>
   <vehicle id="civilian_628" type="civilian" depart="624.6664732990531">
      <route edges="S_C C_N"/>
   </vehicle>
   <vehicle id="civilian_423" type="civilian" depart="625.2371214969254">
      <route edges="W_C C_S"/>
   </vehicle>
   <vehicle id="civilian_351" type="civilian" depart="630.9765085652017">
      <route edges="S_C C_N"/>
   </vehicle>
   <vehicle id="civilian_809" type="civilian" depart="633.1027686277695">
      <route edges="E_C C_S"/>
   </vehicle>
   <vehicle id="civilian_385" type="civilian" depart="633.5291691256456">
      <route edges="S_C C_W"/>
   </vehicle>
   <vehicle id="civilian_69" type="civilian" depart="633.5544104290291">
      <route edges="E_C C_S"/>
   </vehicle>
   <vehicle id="civilian_94" type="civilian" depart="634.0551098811266">
      <route edges="S_C C_E"/>
   </vehicle>
   <vehicle id="civilian_958" type="civilian" depart="634.6435484455608">
      <route edges="S_C C_E"/>
   </vehicle>
   <vehicle id="civilian_615" type="civilian" depart="634.9557050514751">
      <route edges="N_C C_E"/>
   </vehicle>
   <vehicle id="civilian_831" type="civilian" depart="637.7949715218762">
      <route edges="N_C C_E"/>
   </vehicle>
   <vehicle id="civilian_86" type="civilian" depart="639.2363391197997">
      <route edges="E_C C_W"/>
   </vehicle>
   <vehicle id="civilian_829" type="civilian" depart="643.5045525300887">
      <route edges="W_C C_N"/>
   </vehicle>
   <vehicle id="civilian_939" type="civilian" depart="645.541221175191">
      <route edges="W_C C_E"/>
   </vehicle>
   <vehicle id="civilian_902" type="civilian" depart="646.2201818031283">
      <route edges="W_C C_E"/>
   </vehicle>
   <vehicle id="civilian_410" type="civilian" depart="646.499522647297">
      <route edges="N_C C_E"/>
   </vehicle>
   <vehicle id="civilian_438" type="civilian" depart="655.6833932503988">
      <route edges="N_C C_W"/>
   </vehicle>
   <vehicle id="civilian_491" type="civilian" depart="658.1158056835452">
      <route edges="W_C C_E"/>
   </vehicle>
   <vehicle id="civilian_200" type="civilian" depart="667.7714434864606">
      <route edges="N_C C_S"/>
   </vehicle>
   <vehicle id="emergency_15" type="emergency" depart="668.9876457793744">
      <route edges="S_C C_N"/>
   </vehicle>
   <vehicle id="civilian_838" type="civilian" depart="672.532436614641">
      <route edges="N_C C_W"/>
   </vehicle>
   <vehicle id="emergency_194" type="emergency" depart="679.5092088746824">
      <route edges="E_C C_W"/>
   </vehicle>
   <vehicle id="civilian_76" type="civilian" depart="681.8571495817963">
      <route edges="S_C C_W"/>
   </vehicle>
   <vehicle id="civilian_205" type="civilian" depart="684.6161317114212">
      <route edges="E_C C_W"/>
   </vehicle>
   <vehicle id="civilian_859" type="civilian" depart="685.4836889400053">
      <route edges="W_C C_N"/>
   </vehicle>
   <vehicle id="civilian_366" type="civilian" depart="685.8378046751408">
      <route edges="W_C C_N"/>
   </vehicle>
   <vehicle id="emergency_167" type="emergency" depart="687.2853604661124">
      <route edges="S_C C_N"/>
   </vehicle>
   <vehicle id="civilian_116" type="civilian" depart="695.7364110594281">
      <route edges="W_C C_S"/>
   </vehicle>
   <vehicle id="civilian_51" type="civilian" depart="699.9451584728896">
      <route edges="N_C C_E"/>
   </vehicle>
   <vehicle id="civilian_294" type="civilian" depart="701.0772709090257">
      <route edges="E_C C_N"/>
   </vehicle>
   <vehicle id="civilian_881" type="civilian" depart="702.3387751000226">
      <route edges="S_C C_N"/>
   </vehicle>
   <vehicle id="civilian_136" type="civilian" depart="706.170682207255">
      <route edges="N_C C_S"/>
   </vehicle>
   <vehicle id="civilian_519" type="civilian" depart="710.5734466766729">
      <route edges="N_C C_S"/>
   </vehicle>
   <vehicle id="civilian_733" type="civilian" depart="710.939868462914">
      <route edges="E_C C_S"/>
   </vehicle>
   <vehicle id="civilian_112" type="civilian" depart="716.9056959095891">
      <route edges="E_C C_N"/>
   </vehicle>
   <vehicle id="emergency_66" type="emergency" depart="717.6825374539986">
      <route edges="E_C C_W"/>
   </vehicle>
   <vehicle id="civilian_879" type="civilian" depart="719.8939171567006">
      <route edges="E_C C_N"/>
   </vehicle>
   <vehicle id="civilian_830" type="civilian" depart="722.0989510542594">
      <route edges="W_C C_E"/>
   </vehicle>
   <vehicle id="civilian_258" type="civilian" depart="722.7760924051831">
      <route edges="E_C C_N"/>
   </vehicle>
   <vehicle id="civilian_315" type="civilian" depart="723.9508813952801">
      <route edges="W_C C_N"/>
   </vehicle>
   <vehicle id="civilian_978" type="civilian" depart="725.4127818871928">
      <route edges="S_C C_W"/>
   </vehicle>
   <vehicle id="emergency_73" type="emergency" depart="726.6697864421157">
      <route edges="W_C C_E"/>
   </vehicle>
   <vehicle id="civilian_59" type="civilian" depart="728.6508381680007">
      <route edges="E_C C_W"/>
   </vehicle>
   <vehicle id="civilian_82" type="civilian" depart="730.3181315467266">
      <route edges="N_C C_S"/>
   </vehicle>
   <vehicle id="civilian_784" type="civilian" depart="731.5530001508417">
      <route edges="W_C C_E"/>
   </vehicle>
   <vehicle id="civilian_743" type="civilian" depart="732.3610004145002">
      <route edges="N_C C_S"/>
   </vehicle>
   <vehicle id="civilian_118" type="civilian" depart="734.4121346719543">
      <route edges="E_C C_N"/>
   </vehicle>
   <vehicle id="civilian_88" type="civilian" depart="734.4845040493567">
      <route edges="S_C C_N"/>
   </vehicle>
   <vehicle id="civilian_167" type="civilian" depart="735.8371227452976">
      <route edges="W_C C_E"/>
   </vehicle>
   <vehicle id="civilian_652" type="civilian" depart="738.3792851280143">
      <route edges="W_C C_S"/>
   </vehicle>
   <vehicle id="civilian_53" type="civilian" depart="744.6699050586959">
      <route edges="W_C C_S"/>
   </vehicle>
   <vehicle id="emergency_181" type="emergency" depart="745.0455825252716">
      <route edges="W_C C_E"/>
   </vehicle>