<?xml version="1.0" ?>
<routes>
   <vType id="civilian" accel="2.6" decel="4.5" sigma="0.5" length="5" maxSpeed="13.89" color="0,1,0"/>
   <vType id="emergency" vClass="emergency" accel="3.5" decel="5.0" sigma="0" length="7" maxSpeed="20" color="1,0,0" guiShape="emergency">
      <param key="has.bluelight.device" value="true"/>
   </vType>
   <vehicle id="civilian_20" type="civilian" depart="3.684653133483451">
      <route edges="S_C C_E"/>
   </vehicle>
   <vehicle id="civilian_226" type="civilian" depart="4.011735175609887">
      <route edges="N_C C_W"/>
   </vehicle>
   <vehicle id="civilian_32" type="civilian" depart="14.508448967513887">
      <route edges="N_C C_S"/>
   </vehicle>
   <vehicle id="civilian_551" type="civilian" depart="16.511115326634496">
      <route edges="N_C C_W"/>
   </vehicle>
   <vehicle id="civilian_550" type="civilian" depart="23.06733081571206">
      <route edges="E_C C_W"/>
   </vehicle>
   <vehicle id="civilian_222" type="civilian" depart="23.29849672694153">
      <route edges="W_C C_N"/>
   </vehicle>
   <vehicle id="civilian_945" type="civilian" depart="25.75997076942853">
      <route edges="W_C C_E"/>
   </vehicle>
   <vehicle id="civilian_178" type="civilian" depart="27.39564853707965">
      <route edges="W_C C_S"/>
   </vehicle>
   <vehicle id="civilian_755" type="civilian" depart="30.452638337798675">
      <route edges="W_C C_N"/>
   </vehicle>
   <vehicle id="civilian_973" type="civilian" depart="33.799618605578765">
      <route edges="S_C C_W"/>
   </vehicle>
   <vehicle id="civilian_801" type="civilian" depart="39.367630899272534">
      <route edges="E_C C_W"/>
   </vehicle>
   <vehicle id="civilian_537" type="civilian" depart="39.403068758398916">
      <route edges="S_C C_W"/>
   </vehicle>
   <vehicle id="civilian_164" type="civilian" depart="41.192287360344395">
      <route edges="N_C C_E"/>
   </vehicle>
   <vehicle id="civilian_833" type="civilian" depart="44.09703034771746">
      <route edges="N_C C_E"/>
   </vehicle>
   <vehicle id="civilian_357" type="civilian" depart="44.208756401863795">
      <route edges="E_C C_N"/>
   </vehicle>
   <vehicle id="civilian_615" type="civilian" depart="50.56454106685324">
      <route edges="E_C C_N"/>
   </vehicle>
   <vehicle id="civilian_166" type="civilian" depart="50.6765544328271">
      <route edges="W_C C_N"/>
   </vehicle>
   <vehicle id="civilian_811" type="civilian" depart="58.79738696107868">
      <route edges="W_C C_S"/>
   </vehicle>
   <vehicle id="civilian_933" type="civilian" depart="62.91472172125725">
      <route edges="W_C C_S"/>
   </vehicle>
   <vehicle id="civilian_954" type="civilian" depart="64.7522648007147">
      <route edges="W_C C_E"/>
   </vehicle>
   <vehicle id="civilian_6" type="civilian" depart="68.67424924842895">
      <route edges="W_C C_E"/>
   </vehicle>
   <vehicle id="civilian_674" type="civilian" depart="83.14801208474316">
      <route edges="E_C C_W"/>
   </vehicle>
   <vehicle id="civilian_301" type="civilian" depart="83.68986542979053">
      <route edges="N_C C_S"/>
   </vehicle>
   <vehicle id="civilian_167" type="civilian" depart="86.96512559343184">
      <route edges="W_C C_E"/>
   </vehicle>
   <vehicle id="civilian_756" type="civilian" depart="92.45712049017003">
      <route edges="N_C C_E"/>
   </vehicle>
   <vehicle id="civilian_717" type="civilian" depart="95.65317555077546">
      <route edges="S_C C_W"/>
   </vehicle>
   <vehicle id="civilian_815" type="civilian" depart="98.61486065161374">
      <route edges="S_C C_E"/>
   </vehicle>
   <vehicle id="civilian_567" type="civilian" depart="105.45680467237935">
      <route edges="E_C C_N"/>
   </vehicle>
   <vehicle id="civilian_728" type="civilian" depart="105.76435377395997">
      <route edges="W_C C_E"/>
   </vehicle>
   <vehicle id="emergency_92" type="emergency" depart="107.0010104160177">
      <route edges="W_C C_E"/>
   </vehicle>
   <vehicle id="civilian_797" type="civilian" depart="113.38673009643871">
      <route edges="E_C C_S"/>
   </vehicle>
   <vehicle id="civilian_5" type="civilian" depart="114.25582185497159">
      <route edges="S_C C_N"/>
   </vehicle>
   <vehicle id="civilian_813" type="civilian" depart="117.8694536819596">
      <route edges="S_C C_E"/>
   </vehicle>
   <vehicle id="emergency_146" type="emergency" depart="118.81566620009079">
      <route edges="S_C C_N"/>
   </vehicle>
   <vehicle id="civilian_888" type="civilian" depart="120.41895785562792">
      <route edges="N_C C_E"/>
   </vehicle>
   <vehicle id="emergency_78" type="emergency" depart="129.99100088864276">
      <route edges="S_C C_N"/>
   </vehicle>
   <vehicle id="civilian_768" type="civilian" depart="131.37214179832282">
      <route edges="E_C C_S"/>
   </vehicle>
   <vehicle id="civilian_287" type="civilian" depart="136.04912368556458">
      <route edges="E_C C_W"/>
   </vehicle>
   <vehicle id="civilian_707" type="civilian" depart="136.25205658433376">
      <route edges="W_C C_E"/>
   </vehicle>
   <vehicle id="civilian_794" type="civilian" depart="136.34039994607258">
      <route edges="N_C C_E"/>
   </vehicle>
   <vehicle id="civilian_824" type="civilian" depart="137.38419307131687">
      <route edges="N_C C_W"/>
   </vehicle>
   <vehicle id="civilian_700" type="civilian" depart="139.09135788806273">
      <route edges="S_C C_E"/>
   </vehicle>
   <vehicle id="civilian_472" type="civilian" depart="141.5600982519807">
      <route edges="E_C C_W"/>
   </vehicle>
   <vehicle id="civilian_8" type="civilian" depart="142.04709028134852">
      <route edges="N_C C_S"/>
   </vehicle>
   <vehicle id="civilian_434" type="civilian" depart="143.13693594181612">
      <route edges="S_C C_W"/>
   </vehicle>
   <vehicle id="emergency_88" type="emergency" depart="143.53742210000223">
      <route edges="W_C C_E"/>
   </vehicle>
   <vehicle id="emergency_80" type="emergency" depart="143.57377629874657">
      <route edges="E_C C_W"/>
   </vehicle>
   <vehicle id="civilian_100" type="civilian" depart="144.75918440168422">
      <route edges="N_C C_W"/>
   </vehicle>
   <vehicle id="civilian_502" type="civilian" depart="145.1923990685014">
      <route edges="E_C C_W"/>
   </vehicle>
   <vehicle id="emergency_17" type="emergency" depart="146.88852962839684">
      <route edges="W_C C_E"/>
   </vehicle>
   <vehicle id="civilian_938" type="civilian" depart="148.9184236850862">
      <route edges="S_C C_W"/>
   </vehicle>
   <vehicle id="civilian_74" type="civilian" depart="149.10358032698926">
      <route edges="N_C C_E"/>
   </vehicle>
   <vehicle id="civilian_182" type="civilian" depart="152.7600157809477">
      <route edges="E_C C_W"/>
   </vehicle>
   <vehicle id="civilian_37" type="civilian" depart="153.43655738991743">
      <route edges="E_C C_S"/>
   </vehicle>
   <vehicle id="civilian_338" type="civilian" depart="154.75616367918926">
      <route edges="W_C C_S"/>
   </vehicle>
   <vehicle id="civilian_330" type="civilian" depart="155.50180420273034">
      <route edges="W_C C_N"/>
   </vehicle>
   <vehicle id="civilian_836" type="civilian" depart="156.11574110743618">
      <route edges="S_C C_N"/>
   </vehicle>
   <vehicle id="civilian_990" type="civilian" depart="162.38130806314723">
      <route edges="W_C C_E"/>
   </vehicle>
   <vehicle id="civilian_603" type="civilian" depart="169.57534554656397">
      <route edges="N_C C_S"/>
   </vehicle>
   <vehicle id="civilian_889" type="civilian" depart="169.89181146228765">
      <route edges="N_C C_S"/>
   </vehicle>
   <vehicle id="civilian_351" type="civilian" depart="172.97333793512476">
      <route edges="W_C C_S"/>
   </vehicle>
   <vehicle id="civilian_36" type="civilian" depart="175.44926732235098">
      <route edges="W_C C_E"/>
   </vehicle>
   <vehicle id="civilian_334" type="civilian" depart="182.83024007155535">
      <route edges="S_C C_N"/>
   </vehicle>
   <vehicle id="civilian_564" type="civilian" depart="182.93805892134162">
      <route edges="N_C C_E"/>
   </vehicle>
   <vehicle id="civilian_145" type="civilian" depart="183.7972137945987">
      <route edges="E_C C_W"/>
   </vehicle>
   <vehicle id="civilian_617" type="civilian" depart="191.78313747765466">
      <route edges="E_C C_W"/>
   </vehicle>
   <vehicle id="emergency_131" type="emergency" depart="194.54722449480454">
      <route edges="S_C C_N"/>
   </vehicle>
   <vehicle id="civilian_994" type="civilian" depart="197.58541642522417">
      <route edges="N_C C_E"/>
   </vehicle>
   <vehicle id="civilian_621" type="civilian" depart="198.58015311566294">
      <route edges="S_C C_E"/>
   </vehicle>
   <vehicle id="emergency_190" type="emergency" depart="202.21607058251823">
      <route edges="N_C C_S"/>
   </vehicle>
   <vehicle id="civilian_722" type="civilian" depart="203.26261027105477">
      <route edges="N_C C_W"/>
   </vehicle>
   <vehicle id="civilian_412" type="civilian" depart="204.65597832344326">
      <route edges="E_C C_W"/>
   </vehicle>
   <vehicle id="civilian_456" type="civilian" depart="204.84428889539745">
      <route edges="S_C C_E"/>
   </vehicle>
   <vehicle id="civilian_826" type="civilian" depart="214.02993507918455">
      <route edges="W_C C_E"/>
   </vehicle>
   <vehicle id="civilian_568" type="civilian" depart="214.66427467693623">
      <route edges="N_C C_S"/>
   </vehicle>
   <vehicle id="emergency_136" type="emergency" depart="215.38531343285356">
      <route edges="W_C C_E"/>
   </vehicle>
   <vehicle id="civilian_903" type="civilian" depart="216.83881800370725">
      <route edges="S_C C_N"/>
   </vehicle>
   <vehicle id="civilian_586" type="civilian" depart="222.60551429919633">
      <route edges="N_C C_S"/>
   </vehicle>
   <vehicle id="civilian_852" type="civilian" depart="226.45805275598593">
      <route edges="E_C C_N"/>
   </vehicle>
   <vehicle id="civilian_985" type="civilian" depart="229.78665871721455">
      <route edges="N_C C_E"/>
   </vehicle>
   <vehicle id="civilian_383" type="civilian" depart="236.35359895481818">
      <route edges="N_C C_W"/>
   </vehicle>
   <vehicle id="civilian_13" type="civilian" depart="245.7679064150388">
      <route edges="S_C C_N"/>
   </vehicle>
   <vehicle id="civilian_52" type="civilian" depart="249.93485300211083">
      <route edges="S_C C_W"/>
   </vehicle>
   <vehicle id="civilian_790" type="civilian" depart="250.63258305762224">
      <route edges="E_C C_S"/>
   </vehicle>
   <vehicle id="civilian_10" type="civilian" depart="255.6749684672895">
      <route edges="S_C C_N"/>
   </vehicle>
   <vehicle id="civilian_721" type="civilian" depart="261.630961930497">
      <route edges="E_C C_W"/>
   </vehicle>
   <vehicle id="civilian_344" type="civilian" depart="267.2001194500785">
      <route edges="S_C C_E"/>
   </vehicle>
   <vehicle id="civilian_757" type="civilian" depart="271.2964216184401">
      <route edges="S_C C_N"/>
   </vehicle>
   <vehicle id="civilian_735" type="civilian" depart="273.0424442592704">
      <route edges="W_C C_E"/>
   </vehicle>
   <vehicle id="civilian_539" type="civilian" depart="274.87660520904507">
      <route edges="S_C C_W"/>
   </vehicle>
   <vehicle id="civilian_486" type="civilian" depart="275.57505805804993">
      <route edges="N_C C_E"/>
   </vehicle>
   <vehicle id="civilian_863" type="civilian" depart="280.0957986711712">
      <route edges="E_C C_W"/>
   </vehicle>
   <vehicle id="emergency_132" type="emergency" depart="286.3383131344783">
      <route edges="E_C C_W"/>
   </vehicle>
   <vehicle id="civilian_493" type="civilian" depart="294.51427152126166">
      <route edges="W_C C_S"/>
   </vehicle>
   <vehicle id="emergency_139" type="emergency" depart="296.33859065598097">
      <route edges="W_C C_E"/>
   </vehicle>
   <vehicle id="civilian_596" type="civilian" depart="298.1759440726806">
      <route edges="E_C C_N"/>
   </vehicle>
   <vehicle id="civilian_229" type="civilian" depart="303.59672667380204">
      <route edges="N_C C_S"/>
   </vehicle>
   <vehicle id="civilian_156" type="civilian" depart="305.9179254696203">
      <route edges="E_C C_S"/>
   </vehicle>
   <vehicle id="civilian_22" type="civilian" depart="307.94660001265777">
      <route edges="N_C C_S"/>
   </vehicle>
   <vehicle id="emergency_87" type="emergency" depart="312.32631566472867">
      <route edges="W_C C_E"/>
   </vehicle>
   <vehicle id="civilian_575" type="civilian" depart="312.4402222016056">
      <route edges="N_C C_W"/>
   </vehicle>
   <vehicle id="civilian_201" type="civilian" depart="313.30286425484263">
      <route edges="E_C C_S"/>
   </vehicle>
   <vehicle id="civilian_549" type="civilian" depart="314.9385960641821">
      <route edges="W_C C_N"/>
   </vehicle>
   <vehicle id="emergency_167" type="emergency" depart="318.741898586472">
      <route edges="W_C C_E"/>
   </vehicle>
   <vehicle id="civilian_754" type="civilian" depart="321.2967265698764">
      <route edges="W_C C_E"/>
   </vehicle>
   <vehicle id="civilian_463" type="civilian" depart="323.61519848506293">
      <route edges="S_C C_N"/>
   </vehicle>
   <vehicle id="civilian_322" type="civilian" depart="331.9016583616413">
      <route edges="S_C C_E"/>
   </vehicle>
   <vehicle id="emergency_103" type="emergency" depart="334.79445353239385">
      <route edges="N_C C_S"/>
   </vehicle>
   <vehicle id="civilian_587" type="civilian" depart="338.38897742749435">
      <route edges="S_C C_N"/>
   </vehicle>
   <vehicle id="civilian_498" type="civilian" depart="339.228266009933">
      <route edges="N_C C_S"/>
   </vehicle>
   <vehicle id="civilian_597" type="civilian" depart="343.36262394032264">
      <route edges="N_C C_S"/>
   </vehicle>
   <vehicle id="emergency_10" type="emergency" depart="350.1312151051021">
      <route edges="S_C C_N"/>
   </vehicle>
   <vehicle id="civilian_379" type="civilian" depart="351.41062984950054">
      <route edges="E_C C_W"/>
   </vehicle>
   <vehicle id="civilian_119" type="civilian" depart="351.5740542393529">
      <route edges="S_C C_E"/>
   </vehicle>
   <vehicle id="civilian_173" type="civilian" depart="356.99201321906446">
      <route edges="W_C C_E"/>
   </vehicle>
   <vehicle id="civilian_209" type="civilian" depart="361.158060669883">
      <route edges="N_C C_E"/>
   </vehicle>
   <vehicle id="civilian_697" type="civilian" depart="361.89426713842533">
      <route edges="S_C C_E"/>
   </vehicle>
   <vehicle id="civilian_424" type="civilian" depart="371.77236955584385">
      <route edges="E_C C_W"/>
   </vehicle>
   <vehicle id="civilian_671" type="civilian" depart="377.3963817714616">
      <route edges="E_C C_S"/>
   </vehicle>
   <vehicle id="civilian_444" type="civilian" depart="378.57582600970676">
      <route edges="N_C C_S"/>
   </vehicle>
   <vehicle id="civilian_181" type="civilian" depart="379.8609464739793">
      <route edges="S_C C_E"/>
   </vehicle>
   <vehicle id="civilian_122" type="civilian" depart="380.1201037094013">
      <route edges="N_C C_S"/>
   </vehicle>
   <vehicle id="civilian_774" type="civilian" depart="387.2785234570053">
      <route edges="N_C C_S"/>
   </vehicle>
   <vehicle id="civilian_593" type="civilian" depart="387.84829965294136">
      <route edges="N_C C_W"/>
   </vehicle>
   <vehicle id="civilian_350" type="civilian" depart="388.0441226576558">
      <route edges="E_C C_S"/>
   </vehicle>
   <vehicle id="civilian_964" type="civilian" depart="391.3749726742723">
      <route edges="W_C C_E"/>
   </vehicle>
   <vehicle id="civilian_439" type="civilian" depart="398.1481807125613">
      <route edges="E_C C_N"/>
   </vehicle>
   <vehicle id="emergency_12" type="emergency" depart="402.6508857771323">
      <route edges="E_C C_W"/>
   </vehicle>
   <vehicle id="emergency_174" type="emergency" depart="409.0787698577132">
      <route edges="N_C C_S"/>
   </vehicle>
   <vehicle id="civilian_262" type="civilian" depart="409.09762709607367">
      <route edges="S_C C_E"/>
   </vehicle>
   <vehicle id="civilian_202" type="civilian" depart="409.58691518499364">
      <route edges="S_C C_E"/>
   </vehicle>
   <vehicle id="emergency_144" type="emergency" depart="409.7265321071191">
      <route edges="W_C C_E"/>
   </vehicle>
   <vehicle id="civilian_346" type="civilian" depart="414.88182635891025">
      <route edges="S_C C_W"/>
   </vehicle>
   <vehicle id="civilian_896" type="civilian" depart="415.4518499870226">
      <route edges="S_C C_N"/>
   </vehicle>
   <vehicle id="civilian_118" type="civilian" depart="417.12089457915596">
      <route edges="S_C C_N"/>
   </vehicle>
   <vehicle id="emergency_178" type="emergency" depart="419.67587820631184">
      <route edges="S_C C_N"/>
   </vehicle>
   <vehicle id="civilian_487" type="civilian" depart="422.86650376832154">
      <route edges="S_C C_N"/>
   </vehicle>
   <vehicle id="civilian_478" type="civilian" depart="427.61091701699235">
      <route edges="N_C C_E"/>
   </vehicle>
   <vehicle id="emergency_63" type="emergency" depart="429.9998456865081">
      <route edges="S_C C_N"/>
   </vehicle>
   <vehicle id="civilian_631" type="civilian" depart="430.0663628361724">
      <route edges="E_C C_S"/>
   </vehicle>
   <vehicle id="civilian_928" type="civilian" depart="432.14206467804024">
      <route edges="S_C C_N"/>
   </vehicle>
   <vehicle id="civilian_488" type="civilian" depart="433.9644338839792">
      <route edges="N_C C_E"/>
   </vehicle>
   <vehicle id="civilian_792" type="civilian" depart="433.9831854415335">
      <route edges="S_C C_N"/>
   </vehicle>
   <vehicle id="civilian_266" type="civilian" depart="433.989330760006">
      <route edges="S_C C_E"/>
   </vehicle>
   <vehicle id="civilian_993" type="civilian" depart="438.0587223306022">
      <route edges="W_C C_S"/>
   </vehicle>
   <vehicle id="civilian_72" type="civilian" depart="442.35127553290715">
      <route edges="W_C C_S"/>
   </vehicle>
   <vehicle id="emergency_70" type="emergency" depart="442.5514159849357">
      <route edges="E_C C_W"/>
   </vehicle>
   <vehicle id="emergency_21" type="emergency" depart="443.5324944662844">
      <route edges="E_C C_W"/>
   </vehicle>
   <vehicle id="emergency_45" type="emergency" depart="443.6800185320778">
      <route edges="E_C C_W"/>
   </vehicle>
   <vehicle id="civilian_223" type="civilian" depart="447.4248789555854">
      <route edges="E_C C_W"/>
   </vehicle>
   <vehicle id="civilian_912" type="civilian" depart="447.62174175793706">
      <route edges="N_C C_W"/>
   </vehicle>
   <vehicle id="civilian_400" type="civilian" depart="454.1372578262822">
      <route edges="W_C C_E"/>
   </vehicle>
   <vehicle id="emergency_117" type="emergency" depart="457.4200312876307">
      <route edges="N_C C_S"/>
   </vehicle>
   <vehicle id="civilian_24" type="civilian" depart="458.3948850486214">
      <route edges="N_C C_E"/>
   </vehicle>
   <vehicle id="civilian_536" type="civilian" depart="465.3148433894063">
      <route edges="S_C C_E"/>
   </vehicle>
   <vehicle id="civilian_664" type="civilian" depart="465.83051868211345">
      <route edges="S_C C_W"/>
   </vehicle>
   <vehicle id="civilian_619" type="civilian" depart="466.0885377189844">
      <route edges="E_C C_S"/>
   </vehicle>
   <vehicle id="civilian_404" type="civilian" depart="467.4877904138546">
      <route edges="W_C C_S"/>
   </vehicle>
   <vehicle id="civilian_566" type="civilian" depart="477.3163132300574">
      <route edges="W_C C_N"/>
   </vehicle>
   <vehicle id="civilian_905" type="civilian" depart="478.34004774979155">
      <route edges="S_C C_W"/>
   </vehicle>
   <vehicle id="civilian_978" type="civilian" depart="478.5859492244816">
      <route edges="N_C C_W"/>
   </vehicle>
   <vehicle id="emergency_177" type="emergency" depart="480.2637969630845">
      <route edges="N_C C_S"/>
   </vehicle>
   <vehicle id="civilian_16" type="civilian" depart="481.07293377094066">
      <route edges="N_C C_S"/>
   </vehicle>
   <vehicle id="emergency_8" type="emergency" depart="482.2110048797038">
      <route edges="N_C C_S"/>
   </vehicle>
   <vehicle id="civilian_154" type="civilian" depart="482.8581820192851">
      <route edges="S_C C_E"/>
   </vehicle>
   <vehicle id="civilian_546" type="civilian" depart="485.7513139595016">
      <route edges="N_C C_W"/>
   </vehicle>
   <vehicle id="civilian_971" type="civilian" depart="485.8207377311482">
      <route edges="N_C C_E"/>
   </vehicle>
   <vehicle id="civilian_760" type="civilian" depart="491.3140798598124">
      <route edges="E_C C_N"/>
   </vehicle>
   <vehicle id="civilian_882" type="civilian" depart="493.91500354657336">
      <route edges="N_C C_W"/>
   </vehicle>
   <vehicle id="civilian_471" type="civilian" depart="496.1196833746213">
      <route edges="W_C C_E"/>
   </vehicle>
   <vehicle id="civilian_822" type="civilian" depart="504.81775316685827">
      <route edges="W_C C_N"/>
   </vehicle>
   <vehicle id="civilian_188" type="civilian" depart="508.99122107791516">
      <route edges="W_C C_N"/>
   </vehicle>
   <vehicle id="civilian_230" type="civilian" depart="512.1178873593665">
      <route edges="E_C C_N"/>
   </vehicle>
   <vehicle id="civilian_773" type="civilian" depart="512.6916243469448">
      <route edges="W_C C_N"/>
   </vehicle>
   <vehicle id="civilian_324" type="civilian" depart="517.714711452287">
      <route edges="S_C C_N"/>
   </vehicle>
   <vehicle id="civilian_80" type="civilian" depart="521.203674298125">
      <route edges="W_C C_E"/>
   </vehicle>
   <vehicle id="civilian_516" type="civilian" depart="522.012960488753">
      <route edges="N_C C_E"/>
   </vehicle>
   <vehicle id="civilian_372" type="civilian" depart="533.7471359063749">
      <route edges="N_C C_S"/>
   </vehicle>
   <vehicle id="emergency_23" type="emergency" depart="537.0500251503136">
      <route edges="S_C C_N"/>
   </vehicle>
   <vehicle id="civilian_737" type="civilian" depart="538.592464382319">
      <route edges="W_C C_E"/>
   </vehicle>
   <vehicle id="civilian_163" type="civilian" depart="539.4176323962388">
      <route edges="W_C C_S"/>
   </vehicle>
   <vehicle id="civilian_810" type="civilian" depart="548.6936827037058">
      <route edges="E_C C_N"/>
   </vehicle>
   <vehicle id="civilian_386" type="civilian" depart="549.9729529775975">
      <route edges="N_C C_W"/>
   </vehicle>
   <vehicle id="civilian_225" type="civilian" depart="555.5940019043251">
      <route edges="W_C C_E"/>
   </vehicle>
   <vehicle id="civilian_212" type="civilian" depart="564.2208911778412">
      <route edges="E_C C_S"/>
   </vehicle>
   <vehicle id="civilian_200" type="civilian" depart="564.5182944068093">
      <route edges="S_C C_W"/>
   </vehicle>
   <vehicle id="civilian_177" type="civilian" depart="565.2218577435481">
      <route edges="S_C C_E"/>
   </vehicle>
   <vehicle id="emergency_89" type="emergency" depart="565.2308371234593">
      <route edges="E_C C_W"/>
   </vehicle>
   <vehicle id="civilian_204" type="civilian" depart="570.2450650590669">
      <route edges="N_C C_E"/>
   </vehicle>
   <vehicle id="civilian_370" type="civilian" depart="577.482043285999">
      <route edges="N_C C_W"/>
   </vehicle>
   <vehicle id="civilian_972" type="civilian" depart="584.4874591534762">
      <route edges="E_C C_W"/>
   </vehicle>
   <vehicle id="civilian_930" type="civilian" depart="586.2863399581847">
      <route edges="E_C C_S"/>
   </vehicle>
   <vehicle id="civilian_789" type="civilian" depart="599.4660210089605">
      <route edges="N_C C_S"/>
   </vehicle>
   <vehicle id="civilian_618" type="civilian" depart="606.0329642419181">
      <route edges="S_C C_W"/>
   </vehicle>
   <vehicle id="civilian_517" type="civilian" depart="607.3474531209064">
      <route edges="E_C C_S"/>
   </vehicle>
   <vehicle id="civilian_359" type="civilian" depart="607.9418772858007">
      <route edges="S_C C_W"/>
   </vehicle>
   <vehicle id="civilian_466" type="civilian" depart="614.7220336785991">
      <route edges="S_C C_N"/>
   </vehicle>
   <vehicle id="emergency_74" type="emergency" depart="616.7560223752631">
      <route edges="S_C C_N"/>
   </vehicle>
   <vehicle id="civilian_719" type="civilian" depart="618.8007731503097">
      <route edges="S_C C_E"/>
   </vehicle>
   <vehicle id="civilian_123" type="civilian" depart="620.6317391585399">
      <route edges="W_C C_E"/>
   </vehicle>
   <vehicle id="civilian_388" type="civilian" depart="623.7089440324039">
      <route edges="E_C C_W"/>
   </vehicle>
   <vehicle id="civilian_798" type="civilian" depart="635.0955293477112">
      <route edges="W_C C_S"/>
   </vehicle>
   <vehicle id="civilian_138" type="civilian" depart="637.1107703603667">
      <route edges="S_C C_N"/>
   </vehicle>
   <vehicle id="emergency_61" type="emergency" depart="639.136273440084">
      <route edges="E_C C_W"/>
   </vehicle>
   <vehicle id="civilian_508" type="civilian" depart="640.6094498036692">
      <route edges="N_C C_W"/>
   </vehicle>
   <vehicle id="civilian_772" type="civilian" depart="642.9545831183779">
      <route edges="N_C C_E"/>
   </vehicle>
   <vehicle id="civilian_650" type="civilian" depart="644.8876665425513">
      <route edges="W_C C_S"/>
   </vehicle>
   <vehicle id="emergency_27" type="emergency" depart="648.9433103217486">
      <route edges="S_C C_N"/>
   </vehicle>
   <vehicle id="civilian_416" type="civilian" depart="650.4355281641161">
      <route edges="E_C C_W"/>
   </vehicle>
   <vehicle id="civilian_459" type="civilian" depart="651.0030270690712">
      <route edges="N_C C_E"/>
   </vehicle>
   <vehicle id="civilian_65" type="civilian" depart="651.1566495593248">
      <route edges="W_C C_N"/>
   </vehicle>
   <vehicle id="civilian_538" type="civilian" depart="651.7680685772408">
      <route edges="S_C C_N"/>
   </vehicle>
   <vehicle id="civilian_832" type="civilian" depart="653.3773520010277">
      <route edges="N_C C_S"/>
   </vehicle>
   <vehicle id="civilian_812" type="civilian" depart="654.7002940978965">
      <route edges="W_C C_S"/>
   </vehicle>
   <vehicle id="civilian_528" type="civilian" depart="656.4743754909249">
      <route edges="N_C C_E"/>
   </vehicle>
   <vehicle id="civilian_259" type="civilian" depart="658.3173331271469">
      <route edges="S_C C_E"/>
   </vehicle>
   <vehicle id="civilian_432" type="civilian" depart="660.5206426765087">
      <route edges="S_C C_W"/>
   </vehicle>
   <vehicle id="civilian_513" type="civilian" depart="661.125501883539">
      <route edges="W_C C_N"/>
   </vehicle>
   <vehicle id="civilian_868" type="civilian" depart="662.915374704059">
      <route edges="N_C C_W"/>
   </vehicle>
   <vehicle id="civilian_709" type="civilian" depart="666.2068843872426">
      <route edges="S_C C_N"/>
   </vehicle>
   <vehicle id="civilian_622" type="civilian" depart="666.7823784395978">
      <route edges="E_C C_W"/>
   </vehicle>
   <vehicle id="civilian_305" type="civilian" depart="666.9148927328155">
      <route edges="S_C C_E"/>
   </vehicle>
   <vehicle id="civilian_380" type="civilian" depart="671.3901061292969">
      <route edges="W_C C_S"/>
   </vehicle>
   <vehicle id="civilian_991" type="civilian" depart="673.115248387378">
      <route edges="N_C C_S"/>
   </vehicle>
   <vehicle id="civilian_570" type="civilian" depart="673.8767412574708">
      <route edges="S_C C_E"/>
   </vehicle>
   <vehicle id="emergency_55" type="emergency" depart="676.5321271912977">
      <route edges="S_C C_N"/>
   </vehicle>
   <vehicle id="civilian_915" type="civilian" depart="676.5457775107759">
      <route edges="W_C C_N"/>
   </vehicle>
   <vehicle id="emergency_155" type="emergency" depart="677.7280110382492">
      <route edges="N_C C_S"/>
   </vehicle>
   <vehicle id="civilian_856" type="civilian" depart="677.8124433335875">
      <route edges="W_C C_E"/>
   </vehicle>
   <vehicle id="civilian_68" type="civilian" depart="679.1232561750942">
      <route edges="W_C C_E"/>
   </vehicle>
   <vehicle id="civilian_958" type="civilian" depart="679.5383886219344">
      <route edges="W_C C_E"/>
   </vehicle>
   <vehicle id="civilian_875" type="civilian" depart="679.9437487710632">
      <route edges="W_C C_S"/>
   </vehicle>
   <vehicle id="civilian_727" type="civilian" depart="681.0617746404075">
      <route edges="E_C C_S"/>
   </vehicle>
   <vehicle id="civilian_629" type="civilian" depart="687.6833777761627">
      <route edges="E_C C_S"/>
   </vehicle>
   <vehicle id="emergency_194" type="emergency" depart="687.7677687958086">
      <route edges="W_C C_E"/>
   </vehicle>
   <vehicle id="civilian_130" type="civilian" depart="688.0384035851088">
      <route edges="E_C C_W"/>
   </vehicle>
   <vehicle id="emergency_60" type="emergency" depart="695.7690397414823">
      <route edges="E_C C_W"/>
   </vehicle>
   <vehicle id="civilian_308" type="civilian" depart="696.2818853842031">
      <route edges="E_C C_S"/>
   </vehicle>
   <vehicle id="emergency_115" type="emergency" depart="703.8278623720694">
      <route edges="W_C C_E"/>
   </vehicle>
   <vehicle id="civilian_839" type="civilian" depart="710.9166338232882">
      <route edges="E_C C_N"/>
   </vehicle>
   <vehicle id="emergency_65" type="emergency" depart="711.2820863691102">
      <route edges="N_C C_S"/>
   </vehicle>
   <vehicle id="civilian_591" type="civilian" depart="711.5159008090128">
      <route edges="N_C C_E"/>
   </vehicle>
   <vehicle id="civilian_121" type="civilian" depart="716.3434249752332">
      <route edges="S_C C_E"/>
   </vehicle>
   <vehicle id="civilian_843" type="civilian" depart="721.6785647405927">
      <route edges="N_C C_S"/>
   </vehicle>
   <vehicle id="civilian_15" type="civilian" depart="727.7341503270518">
      <route edges="S_C C_N"/>
   </vehicle>
   <vehicle id="civilian_571" type="civilian" depart="728.5667468546405">
      <route edges="N_C C_E"/>
   </vehicle>
   <vehicle id="emergency_102" type="emergency" depart="730.3907468156602">
      <route edges="W_C C_E"/>
   </vehicle>
   <vehicle id="civilian_332" type="civilian" depart="731.1508441199773">
      <route edges="E_C C_W"/>
   </vehicle>