<?xml version="1.0" ?>
<routes>
   <vType id="civilian" accel="2.6" decel="4.5" sigma="0.5" length="5" maxSpeed="13.89" color="0,1,0"/>
   <vType id="emergency" vClass="emergency" accel="3.5" decel="5.0" sigma="0" length="7" maxSpeed="20" color="1,0,0" guiShape="emergency">
      <param key="has.bluelight.device" value="true"/>
   </vType>
   <vehicle id="civilian_3334" type="civilian" depart="2.9885236105768875">
      <route edges="S_C C_N"/>
   </vehicle>
   <vehicle id="civilian_9527" type="civilian" depart="8.436971624065315">
      <route edges="W_C C_E"/>
   </vehicle>
   <vehicle id="civilian_6158" type="civilian" depart="12.565612247992686">
      <route edges="W_C C_E"/>
   </vehicle>
   <vehicle id="civilian_7919" type="civilian" depart="16.004027171788948">
      <route edges="E_C C_N"/>
   </vehicle>
   <vehicle id="civilian_4089" type="civilian" depart="24.76342899775208">
      <route edges="N_C C_E"/>
   </vehicle>
   <vehicle id="civilian_8074" type="civilian" depart="24.875169399643404">
      <route edges="S_C C_W"/>
   </vehicle>
   <vehicle id="civilian_1171" type="civilian" depart="30.432850863848504">
      <route edges="W_C C_S"/>
   </vehicle>
   <vehicle id="civilian_7512" type="civilian" depart="31.135502422645622">
      <route edges="N_C C_W"/>
   </vehicle>
   <vehicle id="civilian_362" type="civilian" depart="31.44110417157231">
      <route edges="S_C C_N"/>
   </vehicle>
   <vehicle id="civilian_9219" type="civilian" depart="34.17163424297698">
      <route edges="S_C C_W"/>
   </vehicle>
   <vehicle id="civilian_7490" type="civilian" depart="39.88809216979172">
      <route edges="S_C C_N"/>
   </vehicle>
   <vehicle id="civilian_1024" type="civilian" depart="42.87623451014922">
      <route edges="W_C C_N"/>
   </vehicle>
   <vehicle id="civilian_698" type="civilian" depart="46.842727058154395">
      <route edges="N_C C_W"/>
   </vehicle>
   <vehicle id="civilian_6738" type="civilian" depart="47.18726091903136">
      <route edges="E_C C_W"/>
   </vehicle>
   <vehicle id="civilian_371" type="civilian" depart="49.450949277676685">
      <route edges="N_C C_E"/>
   </vehicle>
   <vehicle id="civilian_9657" type="civilian" depart="51.24866601965383">
      <route edges="S_C C_E"/>
   </vehicle>
   <vehicle id="civilian_5971" type="civilian" depart="55.96814948874274">
      <route edges="S_C C_E"/>
   </vehicle>
   <vehicle id="civilian_9926" type="civilian" depart="60.925798973241015">
      <route edges="W_C C_N"/>
   </vehicle>
   <vehicle id="civilian_8831" type="civilian" depart="69.9699703063672">
      <route edges="N_C C_W"/>
   </vehicle>
   <vehicle id="civilian_9692" type="civilian" depart="73.46370591025232">
      <route edges="W_C C_E"/>
   </vehicle>
   <vehicle id="civilian_7117" type="civilian" depart="75.10816421456879">
      <route edges="W_C C_N"/>
   </vehicle>
   <vehicle id="civilian_1454" type="civilian" depart="89.7957937695848">
      <route edges="E_C C_W"/>
   </vehicle>
   <vehicle id="civilian_4597" type="civilian" depart="90.934003949668">
      <route edges="N_C C_W"/>
   </vehicle>
   <vehicle id="civilian_8045" type="civilian" depart="91.88589509197298">
      <route edges="N_C C_W"/>
   </vehicle>
   <vehicle id="civilian_455" type="civilian" depart="92.77645070452678">
      <route edges="S_C C_E"/>
   </vehicle>
   <vehicle id="civilian_9153" type="civilian" depart="95.88728358330512">
      <route edges="E_C C_S"/>
   </vehicle>
   <vehicle id="civilian_1395" type="civilian" depart="96.31875180218242">
      <route edges="S_C C_E"/>
   </vehicle>
   <vehicle id="civilian_0" type="civilian" depart="100.17099537921182">
      <route edges="E_C C_S"/>
   </vehicle>
   <vehicle id="civilian_5380" type="civilian" depart="101.90503220643166">
      <route edges="W_C C_N"/>
   </vehicle>
   <vehicle id="civilian_8269" type="civilian" depart="104.90628462603135">
      <route edges="S_C C_W"/>
   </vehicle>
   <vehicle id="civilian_9196" type="civilian" depart="107.12914002215746">
      <route edges="N_C C_E"/>
   </vehicle>
   <vehicle id="civilian_6933" type="civilian" depart="110.74049645552276">
      <route edges="S_C C_W"/>
   </vehicle>
   <vehicle id="civilian_1802" type="civilian" depart="113.91165255011958">
      <route edges="W_C C_E"/>
   </vehicle>
   <vehicle id="civilian_3768" type="civilian" depart="118.53953550449114">
      <route edges="E_C C_W"/>
   </vehicle>
   <vehicle id="civilian_9613" type="civilian" depart="122.3213765110911">
      <route edges="E_C C_S"/>
   </vehicle>
   <vehicle id="civilian_79" type="civilian" depart="124.12766481694293">
      <route edges="N_C C_S"/>
   </vehicle>
   <vehicle id="civilian_6499" type="civilian" depart="124.28421014481961">
      <route edges="N_C C_W"/>
   </vehicle>
   <vehicle id="civilian_6973" type="civilian" depart="124.91202621528252">
      <route edges="S_C C_E"/>
   </vehicle>
   <vehicle id="civilian_915" type="civilian" depart="133.23484559636967">
      <route edges="W_C C_E"/>
   </vehicle>
   <vehicle id="civilian_2644" type="civilian" depart="143.1032583345604">
      <route edges="E_C C_N"/>
   </vehicle>
   <vehicle id="civilian_4601" type="civilian" depart="158.07584460350154">
      <route edges="E_C C_S"/>
   </vehicle>
   <vehicle id="civilian_9075" type="civilian" depart="158.7732600187799">
      <route edges="E_C C_W"/>
   </vehicle>
   <vehicle id="civilian_1105" type="civilian" depart="160.27826164034664">
      <route edges="E_C C_N"/>
   </vehicle>
   <vehicle id="civilian_9887" type="civilian" depart="161.72198563940123">
      <route edges="E_C C_W"/>
   </vehicle>
   <vehicle id="civilian_1638" type="civilian" depart="163.81852334580316">
      <route edges="E_C C_N"/>
   </vehicle>
   <vehicle id="civilian_9039" type="civilian" depart="171.6745621839362">
      <route edges="S_C C_N"/>
   </vehicle>
   <vehicle id="civilian_3199" type="civilian" depart="174.58088172674425">
      <route edges="W_C C_N"/>
   </vehicle>
   <vehicle id="civilian_232" type="civilian" depart="183.55446404703946">
      <route edges="E_C C_W"/>
   </vehicle>
   <vehicle id="civilian_2488" type="civilian" depart="184.18934379604048">
      <route edges="S_C C_N"/>
   </vehicle>
   <vehicle id="civilian_3147" type="civilian" depart="184.3052151055038">
      <route edges="N_C C_E"/>
   </vehicle>
   <vehicle id="civilian_2063" type="civilian" depart="185.7137248694305">
      <route edges="N_C C_W"/>
   </vehicle>
   <vehicle id="civilian_1796" type="civilian" depart="186.8521196598847">
      <route edges="S_C C_N"/>
   </vehicle>
   <vehicle id="civilian_9468" type="civilian" depart="192.55856625259372">
      <route edges="S_C C_E"/>
   </vehicle>
   <vehicle id="civilian_8724" type="civilian" depart="193.56987807688952">
      <route edges="N_C C_E"/>
   </vehicle>
   <vehicle id="civilian_813" type="civilian" depart="205.62154668146704">
      <route edges="N_C C_S"/>
   </vehicle>
   <vehicle id="civilian_9790" type="civilian" depart="215.76895861878143">
      <route edges="S_C C_W"/>
   </vehicle>
   <vehicle id="civilian_7448" type="civilian" depart="222.96617678191976">
      <route edges="N_C C_S"/>
   </vehicle>
   <vehicle id="civilian_2527" type="civilian" depart="224.6169905607349">
      <route edges="S_C C_N"/>
   </vehicle>
   <vehicle id="civilian_3585" type="civilian" depart="225.3757323336134">
      <route edges="S_C C_E"/>
   </vehicle>
   <vehicle id="civilian_7031" type="civilian" depart="225.89371510332202">
      <route edges="N_C C_W"/>
   </vehicle>
   <vehicle id="civilian_3658" type="civilian" depart="226.8946201949782">
      <route edges="E_C C_N"/>
   </vehicle>
   <vehicle id="civilian_6720" type="civilian" depart="226.97587983973122">
      <route edges="S_C C_W"/>
   </vehicle>
   <vehicle id="civilian_5568" type="civilian" depart="228.6814370417929">
      <route edges="W_C C_S"/>
   </vehicle>
   <vehicle id="civilian_5061" type="civilian" depart="229.8556361802535">
      <route edges="N_C C_W"/>
   </vehicle>
   <vehicle id="civilian_985" type="civilian" depart="244.51657840136676">
      <route edges="W_C C_S"/>
   </vehicle>
   <vehicle id="civilian_2467" type="civilian" depart="247.73034387135164">
      <route edges="E_C C_N"/>
   </vehicle>
   <vehicle id="civilian_4801" type="civilian" depart="250.30873909606387">
      <route edges="E_C C_S"/>
   </vehicle>
   <vehicle id="civilian_4815" type="civilian" depart="251.404959587461">
      <route edges="N_C C_W"/>
   </vehicle>
   <vehicle id="civilian_7683" type="civilian" depart="252.77499733614218">
      <route edges="N_C C_W"/>
   </vehicle>
   <vehicle id="civilian_2465" type="civilian" depart="256.1376597083029">
      <route edges="S_C C_N"/>
   </vehicle>
   <vehicle id="civilian_569" type="civilian" depart="261.4191882652346">
      <route edges="W_C C_N"/>
   </vehicle>
   <vehicle id="civilian_4132" type="civilian" depart="263.6482885658902">
      <route edges="E_C C_S"/>
   </vehicle>
   <vehicle id="civilian_7571" type="civilian" depart="266.6634615257144">
      <route edges="N_C C_S"/>
   </vehicle>
   <vehicle id="civilian_4453" type="civilian" depart="271.13680146734697">
      <route edges="W_C C_E"/>
   </vehicle>
   <vehicle id="civilian_2078" type="civilian" depart="272.99199739664994">
      <route edges="W_C C_N"/>
   </vehicle>
   <vehicle id="civilian_3521" type="civilian" depart="280.2498830348519">
      <route edges="E_C C_W"/>
   </vehicle>
   <vehicle id="civilian_8171" type="civilian" depart="280.6355692704168">
      <route edges="W_C C_E"/>
   </vehicle>
   <vehicle id="civilian_6667" type="civilian" depart="282.0894757173003">
      <route edges="E_C C_N"/>
   </vehicle>
   <vehicle id="civilian_7109" type="civilian" depart="289.73683195596857">
      <route edges="W_C C_E"/>
   </vehicle>
   <vehicle id="civilian_571" type="civilian" depart="295.39703623800096">
      <route edges="E_C C_W"/>
   </vehicle>
   <vehicle id="civilian_9423" type="civilian" depart="296.54516103380854">
      <route edges="W_C C_N"/>
   </vehicle>
   <vehicle id="civilian_9443" type="civilian" depart="299.29368229166187">
      <route edges="E_C C_S"/>
   </vehicle>
   <vehicle id="civilian_3246" type="civilian" depart="303.0975736959176">
      <route edges="W_C C_S"/>
   </vehicle>
   <vehicle id="civilian_4153" type="civilian" depart="305.22284694244297">
      <route edges="S_C C_W"/>
   </vehicle>
   <vehicle id="civilian_9290" type="civilian" depart="305.56450341722655">
      <route edges="S_C C_E"/>
   </vehicle>
   <vehicle id="civilian_9654" type="civilian" depart="309.17314322272114">
      <route edges="S_C C_W"/>
   </vehicle>
   <vehicle id="civilian_2619" type="civilian" depart="309.2679648949472">
      <route edges="W_C C_E"/>
   </vehicle>
   <vehicle id="civilian_681" type="civilian" depart="315.071481489257">
      <route edges="N_C C_S"/>
   </vehicle>
   <vehicle id="civilian_3054" type="civilian" depart="326.2003004222178">
      <route edges="S_C C_E"/>
   </vehicle>
   <vehicle id="civilian_8934" type="civilian" depart="327.9773561447117">
      <route edges="N_C C_S"/>
   </vehicle>
   <vehicle id="civilian_7491" type="civilian" depart="329.427562692616">
      <route edges="N_C C_E"/>
   </vehicle>
   <vehicle id="civilian_8646" type="civilian" depart="332.14501427601607">
      <route edges="W_C C_E"/>
   </vehicle>
   <vehicle id="civilian_7375" type="civilian" depart="334.24903948502396">
      <route edges="N_C C_W"/>
   </vehicle>
   <vehicle id="civilian_7961" type="civilian" depart="335.4512642691088">
      <route edges="N_C C_E"/>
   </vehicle>
   <vehicle id="civilian_8158" type="civilian" depart="340.3316392320654">
      <route edges="E_C C_N"/>
   </vehicle>
   <vehicle id="civilian_7252" type="civilian" depart="343.8077400891677">
      <route edges="E_C C_S"/>
   </vehicle>
   <vehicle id="civilian_4769" type="civilian" depart="346.1818848858851">
      <route edges="E_C C_W"/>
   </vehicle>
   <vehicle id="civilian_9107" type="civilian" depart="347.06829077893485">
      <route edges="N_C C_W"/>
   </vehicle>
   <vehicle id="civilian_2184" type="civilian" depart="351.22974030766716">
      <route edges="W_C C_E"/>
   </vehicle>
   <vehicle id="civilian_1949" type="civilian" depart="352.9898507310132">
      <route edges="S_C C_E"/>
   </vehicle>
   <vehicle id="civilian_5515" type="civilian" depart="357.3352284815545">
      <route edges="N_C C_W"/>
   </vehicle>
   <vehicle id="civilian_9965" type="civilian" depart="357.4622421586104">
      <route edges="S_C C_N"/>
   </vehicle>
   <vehicle id="civilian_2765" type="civilian" depart="364.6146485963464">
      <route edges="N_C C_S"/>
   </vehicle>
   <vehicle id="civilian_9167" type="civilian" depart="368.2534934286048">
      <route edges="W_C C_E"/>
   </vehicle>
   <vehicle id="civilian_5357" type="civilian" depart="369.1463745071264">
      <route edges="E_C C_N"/>
   </vehicle>
   <vehicle id="civilian_2367" type="civilian" depart="371.951860623446">
      <route edges="S_C C_E"/>
   </vehicle>
   <vehicle id="civilian_8155" type="civilian" depart="389.7229752587865">
      <route edges="N_C C_W"/>
   </vehicle>
   <vehicle id="civilian_9305" type="civilian" depart="393.8219806597742">
      <route edges="W_C C_N"/>
   </vehicle>
   <vehicle id="civilian_4697" type="civilian" depart="398.5938115032144">
      <route edges="E_C C_W"/>
   </vehicle>
   <vehicle id="civilian_8202" type="civilian" depart="398.7802249376271">
      <route edges="N_C C_E"/>
   </vehicle>
   <vehicle id="civilian_9248" type="civilian" depart="406.1834944672946">
      <route edges="S_C C_N"/>
   </vehicle>
   <vehicle id="civilian_1817" type="civilian" depart="406.69130284513824">
      <route edges="E_C C_W"/>
   </vehicle>
   <vehicle id="civilian_6868" type="civilian" depart="409.35514813090543">
      <route edges="N_C C_W"/>
   </vehicle>
   <vehicle id="civilian_445" type="civilian" depart="416.50488949326103">
      <route edges="S_C C_W"/>
   </vehicle>
   <vehicle id="civilian_3071" type="civilian" depart="418.67147002670134">
      <route edges="S_C C_E"/>
   </vehicle>
   <vehicle id="civilian_1525" type="civilian" depart="425.10322998159734">
      <route edges="N_C C_W"/>
   </vehicle>
   <vehicle id="civilian_3416" type="civilian" depart="427.2420377068964">
      <route edges="S_C C_W"/>
   </vehicle>
   <vehicle id="civilian_2774" type="civilian" depart="431.06647417919896">
      <route edges="N_C C_E"/>
   </vehicle>
   <vehicle id="civilian_6929" type="civilian" depart="433.9333699746164">
      <route edges="S_C C_E"/>
   </vehicle>
   <vehicle id="civilian_5323" type="civilian" depart="444.3315887030663">
      <route edges="N_C C_E"/>
   </vehicle>
   <vehicle id="civilian_8185" type="civilian" depart="446.3832713274396">
      <route edges="S_C C_N"/>
   </vehicle>
   <vehicle id="civilian_3359" type="civilian" depart="456.7856533439798">
      <route edges="S_C C_N"/>
   </vehicle>
   <vehicle id="civilian_9884" type="civilian" depart="457.58466275609334">
      <route edges="N_C C_E"/>
   </vehicle>
   <vehicle id="civilian_4326" type="civilian" depart="460.6120334075743">
      <route edges="E_C C_S"/>
   </vehicle>
   <vehicle id="civilian_5780" type="civilian" depart="464.183595353862">
      <route edges="W_C C_E"/>
   </vehicle>
   <vehicle id="civilian_4799" type="civilian" depart="465.0635887518888">
      <route edges="N_C C_S"/>
   </vehicle>
   <vehicle id="civilian_8964" type="civilian" depart="475.0465174196146">
      <route edges="W_C C_E"/>
   </vehicle>
   <vehicle id="civilian_2123" type="civilian" depart="477.3305333500457">
      <route edges="S_C C_E"/>
   </vehicle>
   <vehicle id="civilian_5058" type="civilian" depart="478.17550704760504">
      <route edges="S_C C_E"/>
   </vehicle>
   <vehicle id="civilian_4351" type="civilian" depart="481.77398869420165">
      <route edges="S_C C_W"/>
   </vehicle>
   <vehicle id="civilian_4384" type="civilian" depart="481.9946922732141">
      <route edges="N_C C_E"/>
   </vehicle>
   <vehicle id="civilian_9453" type="civilian" depart="483.23891298600154">
      <route edges="N_C C_S"/>
   </vehicle>
   <vehicle id="civilian_802" type="civilian" depart="489.4638792071566">
      <route edges="N_C C_W"/>
   </vehicle>
   <vehicle id="civilian_2857" type="civilian" depart="492.0698437457527">
      <route edges="W_C C_N"/>
   </vehicle>
   <vehicle id="civilian_524" type="civilian" depart="492.95522898303057">
      <route edges="N_C C_E"/>
   </vehicle>
   <vehicle id="civilian_4917" type="civilian" depart="493.07174998482583">
      <route edges="S_C C_W"/>
   </vehicle>
   <vehicle id="civilian_8257" type="civilian" depart="493.35155905985187">
      <route edges="W_C C_N"/>
   </vehicle>
   <vehicle id="civilian_8218" type="civilian" depart="493.67757044432017">
      <route edges="E_C C_S"/>
   </vehicle>
   <vehicle id="civilian_1699" type="civilian" depart="497.7603844690841">
      <route edges="N_C C_S"/>
   </vehicle>
   <vehicle id="civilian_9419" type="civilian" depart="500.7502999200879">
      <route edges="S_C C_N"/>
   </vehicle>
   <vehicle id="civilian_6514" type="civilian" depart="502.26165276691637">
      <route edges="W_C C_E"/>
   </vehicle>
   <vehicle id="civilian_4070" type="civilian" depart="503.2301105186257">
      <route edges="N_C C_E"/>
   </vehicle>
   <vehicle id="civilian_1308" type="civilian" depart="513.1515541774392">
      <route edges="S_C C_E"/>
   </vehicle>
   <vehicle id="civilian_4750" type="civilian" depart="516.3766174166722">
      <route edges="W_C C_E"/>
   </vehicle>
   <vehicle id="civilian_9454" type="civilian" depart="516.4831745893576">
      <route edges="E_C C_S"/>
   </vehicle>
   <vehicle id="civilian_2755" type="civilian" depart="517.5340241108137">
      <route edges="N_C C_W"/>
   </vehicle>
   <vehicle id="civilian_9610" type="civilian" depart="525.5766699511613">
      <route edges="W_C C_S"/>
   </vehicle>
   <vehicle id="civilian_2190" type="civilian" depart="525.8375544281346">
      <route edges="W_C C_N"/>
   </vehicle>
   <vehicle id="civilian_6915" type="civilian" depart="527.9522740100617">
      <route edges="W_C C_S"/>
   </vehicle>
   <vehicle id="civilian_307" type="civilian" depart="529.1173078818448">
      <route edges="E_C C_S"/>
   </vehicle>
   <vehicle id="civilian_6689" type="civilian" depart="532.7477054692915">
      <route edges="E_C C_N"/>
   </vehicle>
   <vehicle id="civilian_327" type="civilian" depart="532.7816356273747">
      <route edges="S_C C_W"/>
   </vehicle>
   <vehicle id="civilian_3693" type="civilian" depart="532.9260219701287">
      <route edges="W_C C_E"/>
   </vehicle>
   <vehicle id="civilian_590" type="civilian" depart="538.8823315308615">
      <route edges="W_C C_E"/>
   </vehicle>
   <vehicle id="civilian_7112" type="civilian" depart="540.4016978486048">
      <route edges="W_C C_N"/>
   </vehicle>
   <vehicle id="civilian_3410" type="civilian" depart="542.7485557039198">
      <route edges="E_C C_N"/>
   </vehicle>
   <vehicle id="civilian_9111" type="civilian" depart="546.0598372174647">
      <route edges="E_C C_S"/>
   </vehicle>
   <vehicle id="civilian_3302" type="civilian" depart="548.8630123745284">
      <route edges="N_C C_E"/>
   </vehicle>
   <vehicle id="civilian_6618" type="civilian" depart="550.7634952045169">
      <route edges="E_C C_N"/>
   </vehicle>
   <vehicle id="civilian_8738" type="civilian" depart="556.8434305903307">
      <route edges="E_C C_W"/>
   </vehicle>
   <vehicle id="civilian_1152" type="civilian" depart="557.6500448490327">
      <route edges="W_C C_N"/>
   </vehicle>
   <vehicle id="civilian_4684" type="civilian" depart="557.9797626068253">
      <route edges="E_C C_W"/>
   </vehicle>
   <vehicle id="civilian_8853" type="civilian" depart="561.2536535783357">
      <route edges="S_C C_N"/>
   </vehicle>
   <vehicle id="civilian_6721" type="civilian" depart="562.0226444154474">
      <route edges="W_C C_E"/>
   </vehicle>
   <vehicle id="civilian_9440" type="civilian" depart="563.0441777223076">
      <route edges="S_C C_E"/>
   </vehicle>
   <vehicle id="civilian_9891" type="civilian" depart="564.357176427996">
      <route edges="W_C C_S"/>
   </vehicle>
   <vehicle id="civilian_7745" type="civilian" depart="566.9412366559867">
      <route edges="E_C C_N"/>
   </vehicle>
   <vehicle id="civilian_8819" type="civilian" depart="567.8608855837695">
      <route edges="S_C C_W"/>
   </vehicle>
   <vehicle id="civilian_5289" type="civilian" depart="568.6965437326523">
      <route edges="N_C C_S"/>
   </vehicle>
   <vehicle id="civilian_9626" type="civilian" depart="569.1134707722849">
      <route edges="S_C C_N"/>
   </vehicle>
   <vehicle id="civilian_1645" type="civilian" depart="570.566038804773">
      <route edges="E_C C_S"/>
   </vehicle>
   <vehicle id="civilian_7195" type="civilian" depart="572.8902593011727">
      <route edges="S_C C_W"/>
   </vehicle>
   <vehicle id="civilian_9727" type="civilian" depart="573.6495178350012">
      <route edges="W_C C_E"/>
   </vehicle>
   <vehicle id="civilian_9892" type="civilian" depart="575.6189397137232">
      <route edges="S_C C_E"/>
   </vehicle>
   <vehicle id="civilian_2073" type="civilian" depart="575.8961013611641">
      <route edges="N_C C_E"/>
   </vehicle>
   <vehicle id="civilian_3339" type="civilian" depart="577.7918201383324">
      <route edges="E_C C_S"/>
   </vehicle>
   <vehicle id="civilian_216" type="civilian" depart="581.7873089463505">
      <route edges="W_C C_N"/>
   </vehicle>
   <vehicle id="civilian_6946" type="civilian" depart="603.3438915582474">
      <route edges="E_C C_S"/>
   </vehicle>
   <vehicle id="civilian_6613" type="civilian" depart="605.0820587128793">
      <route edges="E_C C_W"/>
   </vehicle>
   <vehicle id="civilian_2097" type="civilian" depart="608.79284092603">
      <route edges="S_C C_W"/>
   </vehicle>
   <vehicle id="civilian_8420" type="civilian" depart="611.0705742542466">
      <route edges="S_C C_E"/>
   </vehicle>
   <vehicle id="civilian_2117" type="civilian" depart="613.9345702592442">
      <route edges="W_C C_S"/>
   </vehicle>
   <vehicle id="civilian_6210" type="civilian" depart="614.4254765595822">
      <route edges="E_C C_W"/>
   </vehicle>
   <vehicle id="civilian_7341" type="civilian" depart="615.0447400774151">
      <route edges="N_C C_W"/>
   </vehicle>
   <vehicle id="civilian_5122" type="civilian" depart="616.5855029697824">
      <route edges="S_C C_N"/>
   </vehicle>
   <vehicle id="civilian_2518" type="civilian" depart="622.3722325315522">
      <route edges="S_C C_E"/>
   </vehicle>
   <vehicle id="civilian_2631" type="civilian" depart="623.3407615552618">
      <route edges="E_C C_W"/>
   </vehicle>
   <vehicle id="civilian_6530" type="civilian" depart="625.8530586822468">
      <route edges="N_C C_S"/>
   </vehicle>
   <vehicle id="civilian_5611" type="civilian" depart="626.5693717242486">
      <route edges="N_C C_S"/>
   </vehicle>
   <vehicle id="civilian_3274" type="civilian" depart="627.384495707144">
      <route edges="S_C C_N"/>
   </vehicle>
   <vehicle id="civilian_3868" type="civilian" depart="639.0480568451409">
      <route edges="W_C C_N"/>
   </vehicle>
   <vehicle id="civilian_3549" type="civilian" depart="640.9092555077623">
      <route edges="E_C C_N"/>
   </vehicle>
   <vehicle id="civilian_200" type="civilian" depart="647.4353457497357">
      <route edges="S_C C_E"/>
   </vehicle>
   <vehicle id="civilian_6189" type="civilian" depart="652.4111009889056">
      <route edges="E_C C_N"/>
   </vehicle>
   <vehicle id="civilian_8806" type="civilian" depart="660.5433154020398">
      <route edges="S_C C_W"/>
   </vehicle>
   <vehicle id="civilian_2781" type="civilian" depart="664.2671473355026">
      <route edges="W_C C_N"/>
   </vehicle>
   <vehicle id="civilian_943" type="civilian" depart="669.5014464493858">
      <route edges="S_C C_W"/>
   </vehicle>
   <vehicle id="civilian_4386" type="civilian" depart="678.8912331886903">
      <route edges="E_C C_W"/>
   </vehicle>
   <vehicle id="civilian_1218" type="civilian" depart="688.504026484444">
      <route edges="E_C C_W"/>
   </vehicle>
   <vehicle id="civilian_8398" type="civilian" depart="690.9878301072649">
      <route edges="N_C C_S"/>
   </vehicle>
   <vehicle id="civilian_1392" type="civilian" depart="705.4050948494432">
      <route edges="N_C C_S"/>
   </vehicle>
   <vehicle id="civilian_5977" type="civilian" depart="706.7520571623702">
      <route edges="E_C C_N"/>
   </vehicle>
   <vehicle id="civilian_5196" type="civilian" depart="707.4139986059604">
      <route edges="S_C C_E"/>
   </vehicle>
   <vehicle id="civilian_7634" type="civilian" depart="709.6269008522142">
      <route edges="E_C C_S"/>
   </vehicle>
   <vehicle id="civilian_1733" type="civilian" depart="710.8112524452279">
      <route edges="W_C C_N"/>
   </vehicle>
   <vehicle id="civilian_5839" type="civilian" depart="711.5131837571229">
      <route edges="S_C C_E"/>
   </vehicle>
   <vehicle id="civilian_3227" type="civilian" depart="717.7803440281921">
      <route edges="W_C C_S"/>
   </vehicle>
   <vehicle id="civilian_4083" type="civilian" depart="718.4750757286121">
      <route edges="W_C C_N"/>
   </vehicle>
   <vehicle id="civilian_7783" type="civilian" depart="725.9309270696206">
      <route edges="E_C C_N"/>
   </vehicle>
   <vehicle id="civilian_8835" type="civilian" depart="732.8195174515395">
      <route edges="W_C C_E"/>
   </vehicle>
   <vehicle id="civilian_7080" type="civilian" depart="736.9789740689679">
      <route edges="S_C C_N"/>
   </vehicle>
   <vehicle id="civilian_5484" type="civilian" depart="738.7342473149712">
      <route edges="N_C C_E"/>
   </vehicle>
   <vehicle id="civilian_5843" type="civilian" depart="739.5863470437996">
      <route edges="W_C C_S"/>
   </vehicle>
   <vehicle id="civilian_4045" type="civilian" depart="743.4618763170362">
      <route edges="S_C C_N"/>
   </vehicle>
   <vehicle id="civilian_2046" type="civilian" depart="745.674308344594">
      <route edges="N_C C_S"/>
   </vehicle>
   <vehicle id="civilian_5663" type="civilian" depart="761.3227418577244">
      <route edges="W_C C_E"/>
   </vehicle>
   <vehicle id="civilian_5871" type="civilian" depart="763.3698823991119">
      <route edges="W_C C_E"/>
   </vehicle>
   <vehicle id="civilian_5686" type="civilian" depart="769.5133769057243">
      <route edges="W_C C_E"/>
   </vehicle>
   <vehicle id="civilian_3780" type="civilian" depart="769.783462279754">
      <route edges="E_C C_S"/>
   </vehicle>
   <vehicle id="civilian_5186" type="civilian" depart="770.4453085439437">
      <route edges="E_C C_N"/>
   </vehicle>
   <vehicle id="civilian_8726" type="civilian" depart="782.2497602918155">
      <route edges="S_C C_W"/>
   </vehicle>
   <vehicle id="civilian_4886" type="civilian" depart="782.9522018564945">
      <route edges="N_C C_S"/>
   </vehicle>
   <vehicle id="civilian_7191" type="civilian" depart="783.863096049744">
      <route edges="E_C C_N"/>
   </vehicle>
   <vehicle id="civilian_6643" type="civilian" depart="788.2453690063555">
      <route edges="S_C C_W"/>
   </vehicle>
   <vehicle id="civilian_1044" type="civilian" depart="789.2193626838906">
      <route edges="S_C C_E"/>
   </vehicle>
   <vehicle id="civilian_3804" type="civilian" depart="798.3529664745923">
      <route edges="W_C C_N"/>
   </vehicle>
   <vehicle id="civilian_9642" type="civilian" depart="805.1445100823664">
      <route edges="N_C C_W"/>
   </vehicle>
   <vehicle id="civilian_9119" type="civilian" depart="811.2285725618751">
      <route edges="W_C C_E"/>
   </vehicle>
   <vehicle id="civilian_8370" type="civilian" depart="815.0068152382852">
      <route edges="E_C C_N"/>
   </vehicle>
   <vehicle id="civilian_7789" type="civilian" depart="816.1887306204098">
      <route edges="W_C C_E"/>
   </vehicle>
   <vehicle id="civilian_3750" type="civilian" depart="816.2870191512401">
      <route edges="E_C C_N"/>
   </vehicle>
   <vehicle id="civilian_179" type="civilian" depart="817.9645990514226">
      <route edges="E_C C_S"/>
   </vehicle>
   <vehicle id="civilian_5846" type="civilian" depart="825.4996763213644">
      <route edges="E_C C_S"/>
   </vehicle>
   <vehicle id="civilian_1590" type="civilian" depart="826.0628598676907">
      <route edges="S_C C_W"/>
   </vehicle>
   <vehicle id="civilian_9521" type="civilian" depart="826.3569845767589">
      <route edges="N_C C_W"/>
   </vehicle>
   <vehicle id="civilian_2088" type="civilian" depart="830.9858028462359">
      <route edges="S_C C_W"/>
   </vehicle>
   <vehicle id="civilian_1982" type="civilian" depart="833.3330406210627">
      <route edges="S_C C_W"/>
   </vehicle>
   <vehicle id="civilian_877" type="civilian" depart="837.0990515500418">
      <route edges="W_C C_E"/>
   </vehicle>
   <vehicle id="civilian_6160" type="civilian" depart="838.5551792961099">
      <route edges="E_C C_S"/>
   </vehicle>
   <vehicle id="civilian_7656" type="civilian" depart="841.4110228564601">
      <route edges="N_C C_S"/>
   </vehicle>
   <vehicle id="civilian_5305" type="civilian" depart="841.9595933790633">
      <route edges="E_C C_N"/>
   </vehicle>
   <vehicle id="civilian_9283" type="civilian" depart="843.2876374287623">
      <route edges="S_C C_N"/>
   </vehicle>
   <vehicle id="civilian_5982" type="civilian" depart="850.1932963510583">
      <route edges="W_C C_E"/>
   </vehicle>
   <vehicle id="civilian_9839" type="civilian" depart="852.2925183629142">
      <route edges="W_C C_N"/>
   </vehicle>
   <vehicle id="civilian_1703" type="civilian" depart="855.0909742106505">
      <route edges="W_C C_E"/>
   </vehicle>
   <vehicle id="civilian_5298" type="civilian" depart="859.7254070707999">
      <route edges="S_C C_W"/>
   </vehicle>
   <vehicle id="civilian_4463" type="civilian" depart="863.2130583996052">
      <route edges="S_C C_E"/>