<?xml version="1.0" ?>
<routes>
   <vType id="civilian" accel="2.6" decel="4.5" sigma="0.5" length="5" maxSpeed="13.89" color="0,1,0"/>
   <vType id="emergency" vClass="emergency" accel="3.5" decel="5.0" sigma="0" length="7" maxSpeed="20" color="1,0,0" guiShape="emergency">
      <param key="has.bluelight.device" value="true"/>
   </vType>
   <vehicle id="civilian_742" type="civilian" depart="0.7491729753825283">
      <route edges="E_C C_N"/>
   </vehicle>
   <vehicle id="civilian_278" type="civilian" depart="0.9978885285664596">
      <route edges="S_C C_N"/>
   </vehicle>
   <vehicle id="civilian_27" type="civilian" depart="2.320456782833169">
      <route edges="W_C C_S"/>
   </vehicle>
   <vehicle id="civilian_277" type="civilian" depart="4.4491888298681115">
      <route edges="S_C C_N"/>
   </vehicle>
   <vehicle id="civilian_724" type="civilian" depart="12.888130678030896">
      <route edges="S_C C_W"/>
   </vehicle>
   <vehicle id="civilian_544" type="civilian" depart="15.328257141745194">
      <route edges="N_C C_S"/>
   </vehicle>
   <vehicle id="civilian_786" type="civilian" depart="18.98533106574409">
      <route edges="N_C C_E"/>
   </vehicle>
   <vehicle id="civilian_639" type="civilian" depart="22.054197626634455">
      <route edges="E_C C_S"/>
   </vehicle>
   <vehicle id="civilian_973" type="civilian" depart="23.25996210936627">
      <route edges="W_C C_E"/>
   </vehicle>
   <vehicle id="civilian_245" type="civilian" depart="24.3284281630749">
      <route edges="E_C C_S"/>
   </vehicle>
   <vehicle id="civilian_47" type="civilian" depart="24.644645242148087">
      <route edges="E_C C_S"/>
   </vehicle>
   <vehicle id="civilian_19" type="civilian" depart="28.51182453085972">
      <route edges="S_C C_W"/>
   </vehicle>
   <vehicle id="civilian_725" type="civilian" depart="33.260305465974184">
      <route edges="S_C C_N"/>
   </vehicle>
   <vehicle id="civilian_71" type="civilian" depart="35.39580645434377">
      <route edges="S_C C_N"/>
   </vehicle>
   <vehicle id="civilian_300" type="civilian" depart="37.46758712570251">
      <route edges="E_C C_S"/>
   </vehicle>
   <vehicle id="civilian_102" type="civilian" depart="37.46815928349485">
      <route edges="N_C C_E"/>
   </vehicle>
   <vehicle id="civilian_744" type="civilian" depart="40.865598646042265">
      <route edges="S_C C_N"/>
   </vehicle>
   <vehicle id="civilian_987" type="civilian" depart="44.46565062259933">
      <route edges="S_C C_N"/>
   </vehicle>
   <vehicle id="civilian_497" type="civilian" depart="47.34644045663639">
      <route edges="W_C C_S"/>
   </vehicle>
   <vehicle id="civilian_631" type="civilian" depart="51.909700771707">
      <route edges="N_C C_E"/>
   </vehicle>
   <vehicle id="civilian_859" type="civilian" depart="56.37869716539945">
      <route edges="E_C C_N"/>
   </vehicle>
   <vehicle id="civilian_462" type="civilian" depart="59.45922075965919">
      <route edges="W_C C_E"/>
   </vehicle>
   <vehicle id="civilian_128" type="civilian" depart="63.056481295544046">
      <route edges="W_C C_N"/>
   </vehicle>
   <vehicle id="civilian_897" type="civilian" depart="67.91225586999406">
      <route edges="W_C C_E"/>
   </vehicle>
   <vehicle id="civilian_264" type="civilian" depart="68.45887723317534">
      <route edges="E_C C_N"/>
   </vehicle>
   <vehicle id="civilian_555" type="civilian" depart="75.66676208866268">
      <route edges="S_C C_N"/>
   </vehicle>
   <vehicle id="civilian_525" type="civilian" depart="81.03719635287968">
      <route edges="W_C C_N"/>
   </vehicle>
   <vehicle id="civilian_80" type="civilian" depart="84.23349943318028">
      <route edges="S_C C_N"/>
   </vehicle>
   <vehicle id="civilian_971" type="civilian" depart="86.98559326661974">
      <route edges="N_C C_S"/>
   </vehicle>
   <vehicle id="civilian_37" type="civilian" depart="87.97236591352546">
      <route edges="W_C C_E"/>
   </vehicle>
   <vehicle id="civilian_136" type="civilian" depart="87.98729093929754">
      <route edges="E_C C_W"/>
   </vehicle>
   <vehicle id="civilian_549" type="civilian" depart="89.6892726840306">
      <route edges="S_C C_N"/>
   </vehicle>
   <vehicle id="civilian_634" type="civilian" depart="91.61659194093295">
      <route edges="S_C C_E"/>
   </vehicle>
   <vehicle id="civilian_174" type="civilian" depart="94.00627338181434">
      <route edges="W_C C_S"/>
   </vehicle>
   <vehicle id="civilian_643" type="civilian" depart="98.6324775197856">
      <route edges="W_C C_E"/>
   </vehicle>
   <vehicle id="emergency_7" type="emergency" depart="101.60297905803127">
      <route edges="S_C C_N"/>
   </vehicle>
   <vehicle id="civilian_202" type="civilian" depart="105.45070628400026">
      <route edges="N_C C_S"/>
   </vehicle>
   <vehicle id="civilian_801" type="civilian" depart="105.47066575200023">
      <route edges="W_C C_E"/>
   </vehicle>
   <vehicle id="civilian_65" type="civilian" depart="106.23209162618394">
      <route edges="W_C C_E"/>
   </vehicle>
   <vehicle id="civilian_537" type="civilian" depart="106.82107961577674">
      <route edges="N_C C_S"/>
   </vehicle>
   <vehicle id="civilian_126" type="civilian" depart="112.94816939198218">
      <route edges="S_C C_W"/>
   </vehicle>
   <vehicle id="emergency_11" type="emergency" depart="115.91276036704659">
      <route edges="W_C C_E"/>
   </vehicle>
   <vehicle id="civilian_75" type="civilian" depart="121.37310660463729">
      <route edges="W_C C_E"/>
   </vehicle>
   <vehicle id="civilian_230" type="civilian" depart="122.49363536636663">
      <route edges="W_C C_E"/>
   </vehicle>
   <vehicle id="civilian_573" type="civilian" depart="125.07262488645581">
      <route edges="W_C C_E"/>
   </vehicle>
   <vehicle id="civilian_95" type="civilian" depart="125.0840066811929">
      <route edges="E_C C_N"/>
   </vehicle>
   <vehicle id="emergency_157" type="emergency" depart="129.03496395378767">
      <route edges="N_C C_S"/>
   </vehicle>
   <vehicle id="civilian_256" type="civilian" depart="129.07215647886133">
      <route edges="E_C C_N"/>
   </vehicle>
   <vehicle id="civilian_610" type="civilian" depart="135.2871495157276">
      <route edges="S_C C_E"/>
   </vehicle>
   <vehicle id="civilian_759" type="civilian" depart="135.43256344083753">
      <route edges="E_C C_W"/>
   </vehicle>
   <vehicle id="civilian_821" type="civilian" depart="137.98434320495514">
      <route edges="W_C C_E"/>
   </vehicle>
   <vehicle id="civilian_416" type="civilian" depart="143.7221605366323">
      <route edges="W_C C_E"/>
   </vehicle>
   <vehicle id="civilian_531" type="civilian" depart="145.81562627262178">
      <route edges="S_C C_E"/>
   </vehicle>
   <vehicle id="civilian_613" type="civilian" depart="145.92514765321002">
      <route edges="N_C C_W"/>
   </vehicle>
   <vehicle id="emergency_64" type="emergency" depart="146.3873112492195">
      <route edges="E_C C_W"/>
   </vehicle>
   <vehicle id="civilian_423" type="civilian" depart="152.5409367447627">
      <route edges="S_C C_N"/>
   </vehicle>
   <vehicle id="emergency_196" type="emergency" depart="159.551345756121">
      <route edges="S_C C_N"/>
   </vehicle>
   <vehicle id="civilian_539" type="civilian" depart="163.88722747472158">
      <route edges="W_C C_E"/>
   </vehicle>
   <vehicle id="civilian_968" type="civilian" depart="164.32867488376667">
      <route edges="N_C C_W"/>
   </vehicle>
   <vehicle id="emergency_153" type="emergency" depart="168.48545264827027">
      <route edges="N_C C_W"/>
   </vehicle>
   <vehicle id="civilian_996" type="civilian" depart="172.22426034638843">
      <route edges="E_C C_W"/>
   </vehicle>
   <vehicle id="civilian_107" type="civilian" depart="174.21826251901237">
      <route edges="S_C C_E"/>
   </vehicle>
   <vehicle id="civilian_330" type="civilian" depart="176.84813042626448">
      <route edges="E_C C_S"/>
   </vehicle>
   <vehicle id="civilian_405" type="civilian" depart="179.07431505513648">
      <route edges="N_C C_S"/>
   </vehicle>
   <vehicle id="civilian_180" type="civilian" depart="188.4117784188223">
      <route edges="S_C C_N"/>
   </vehicle>
   <vehicle id="civilian_753" type="civilian" depart="189.6139155751185">
      <route edges="N_C C_S"/>
   </vehicle>
   <vehicle id="civilian_924" type="civilian" depart="200.26528897633548">
      <route edges="E_C C_W"/>
   </vehicle>
   <vehicle id="civilian_143" type="civilian" depart="206.9670343525294">
      <route edges="S_C C_N"/>
   </vehicle>
   <vehicle id="civilian_486" type="civilian" depart="208.7903391482812">
      <route edges="S_C C_N"/>
   </vehicle>
   <vehicle id="civilian_940" type="civilian" depart="213.40836089126847">
      <route edges="N_C C_S"/>
   </vehicle>
   <vehicle id="civilian_113" type="civilian" depart="214.75076309882252">
      <route edges="N_C C_W"/>
   </vehicle>
   <vehicle id="civilian_41" type="civilian" depart="215.08374811422635">
      <route edges="S_C C_E"/>
   </vehicle>
   <vehicle id="civilian_780" type="civilian" depart="220.42093931460127">
      <route edges="S_C C_W"/>
   </vehicle>
   <vehicle id="emergency_32" type="emergency" depart="220.757241905638">
      <route edges="W_C C_N"/>
   </vehicle>
   <vehicle id="civilian_478" type="civilian" depart="227.12087053567984">
      <route edges="S_C C_W"/>
   </vehicle>
   <vehicle id="civilian_615" type="civilian" depart="230.6750160057823">
      <route edges="E_C C_N"/>
   </vehicle>
   <vehicle id="civilian_890" type="civilian" depart="238.81873601538004">
      <route edges="W_C C_E"/>
   </vehicle>
   <vehicle id="emergency_143" type="emergency" depart="246.3033016509265">
      <route edges="W_C C_E"/>
   </vehicle>
   <vehicle id="civilian_274" type="civilian" depart="253.20639123381906">
      <route edges="E_C C_W"/>
   </vehicle>
   <vehicle id="civilian_604" type="civilian" depart="253.43409125463907">
      <route edges="E_C C_W"/>
   </vehicle>
   <vehicle id="civilian_371" type="civilian" depart="256.9073756090431">
      <route edges="N_C C_W"/>
   </vehicle>
   <vehicle id="civilian_714" type="civilian" depart="266.7874583645235">
      <route edges="S_C C_E"/>
   </vehicle>
   <vehicle id="emergency_127" type="emergency" depart="267.2161466854835">
      <route edges="W_C C_E"/>
   </vehicle>
   <vehicle id="civilian_324" type="civilian" depart="268.3516337321694">
      <route edges="N_C C_E"/>
   </vehicle>
   <vehicle id="civilian_718" type="civilian" depart="271.1242477284889">
      <route edges="W_C C_E"/>
   </vehicle>
   <vehicle id="civilian_922" type="civilian" depart="279.2645367161093">
      <route edges="S_C C_E"/>
   </vehicle>
   <vehicle id="civilian_312" type="civilian" depart="280.94361581889905">
      <route edges="S_C C_N"/>
   </vehicle>
   <vehicle id="civilian_882" type="civilian" depart="285.5492470340786">
      <route edges="W_C C_N"/>
   </vehicle>
   <vehicle id="civilian_636" type="civilian" depart="286.5762633107373">
      <route edges="W_C C_N"/>
   </vehicle>
   <vehicle id="civilian_208" type="civilian" depart="288.17692149810483">
      <route edges="E_C C_W"/>
   </vehicle>
   <vehicle id="civilian_865" type="civilian" depart="290.15614208948097">
      <route edges="E_C C_W"/>
   </vehicle>
   <vehicle id="emergency_18" type="emergency" depart="291.28838205109025">
      <route edges="S_C C_N"/>
   </vehicle>
   <vehicle id="civilian_327" type="civilian" depart="302.7112423085879">
      <route edges="S_C C_E"/>
   </vehicle>
   <vehicle id="civilian_846" type="civilian" depart="304.95649402875733">
      <route edges="W_C C_N"/>
   </vehicle>
   <vehicle id="emergency_122" type="emergency" depart="306.8885728128178">
      <route edges="E_C C_W"/>
   </vehicle>
   <vehicle id="civilian_319" type="civilian" depart="310.0215371014891">
      <route edges="E_C C_W"/>
   </vehicle>
   <vehicle id="civilian_283" type="civilian" depart="313.7249166527598">
      <route edges="E_C C_W"/>
   </vehicle>
   <vehicle id="civilian_439" type="civilian" depart="316.5612773735828">
      <route edges="N_C C_S"/>
   </vehicle>
   <vehicle id="civilian_402" type="civilian" depart="319.62149866462914">
      <route edges="W_C C_S"/>
   </vehicle>
   <vehicle id="emergency_151" type="emergency" depart="320.70537633974345">
      <route edges="N_C C_S"/>
   </vehicle>
   <vehicle id="civilian_571" type="civilian" depart="322.28512093763857">
      <route edges="E_C C_N"/>
   </vehicle>
   <vehicle id="civilian_790" type="civilian" depart="324.7773412024061">
      <route edges="E_C C_N"/>
   </vehicle>
   <vehicle id="civilian_373" type="civilian" depart="324.82022091692363">
      <route edges="S_C C_W"/>
   </vehicle>
   <vehicle id="civilian_872" type="civilian" depart="325.14499147888756">
      <route edges="E_C C_W"/>
   </vehicle>
   <vehicle id="civilian_570" type="civilian" depart="327.691259658468">
      <route edges="N_C C_E"/>
   </vehicle>
   <vehicle id="civilian_543" type="civilian" depart="327.9446307048221">
      <route edges="S_C C_N"/>
   </vehicle>
   <vehicle id="civilian_910" type="civilian" depart="335.8624327695015">
      <route edges="W_C C_N"/>
   </vehicle>
   <vehicle id="emergency_139" type="emergency" depart="337.37873087101275">
      <route edges="E_C C_W"/>
   </vehicle>
   <vehicle id="emergency_52" type="emergency" depart="338.6933922857978">
      <route edges="N_C C_S"/>
   </vehicle>
   <vehicle id="civilian_249" type="civilian" depart="339.3492403353681">
      <route edges="W_C C_E"/>
   </vehicle>
   <vehicle id="civilian_686" type="civilian" depart="344.30619422226647">
      <route edges="S_C C_N"/>
   </vehicle>
   <vehicle id="civilian_248" type="civilian" depart="361.1753469756822">
      <route edges="W_C C_E"/>
   </vehicle>
   <vehicle id="civilian_734" type="civilian" depart="364.44873963623854">
      <route edges="W_C C_N"/>
   </vehicle>
   <vehicle id="civilian_196" type="civilian" depart="365.23112839187735">
      <route edges="N_C C_W"/>
   </vehicle>
   <vehicle id="emergency_132" type="emergency" depart="368.7776523185099">
      <route edges="W_C C_N"/>
   </vehicle>
   <vehicle id="civilian_585" type="civilian" depart="370.75351576258504">
      <route edges="E_C C_W"/>
   </vehicle>
   <vehicle id="civilian_760" type="civilian" depart="374.5261950232763">
      <route edges="N_C C_S"/>
   </vehicle>
   <vehicle id="emergency_50" type="emergency" depart="375.38567631467544">
      <route edges="E_C C_W"/>
   </vehicle>
   <vehicle id="civilian_738" type="civilian" depart="380.2141621660766">
      <route edges="W_C C_E"/>
   </vehicle>
   <vehicle id="emergency_24" type="emergency" depart="380.25780684387416">
      <route edges="S_C C_N"/>
   </vehicle>
   <vehicle id="civilian_225" type="civilian" depart="387.6334737991606">
      <route edges="S_C C_E"/>
   </vehicle>
   <vehicle id="civilian_993" type="civilian" depart="389.7382195181178">
      <route edges="N_C C_S"/>
   </vehicle>
   <vehicle id="civilian_837" type="civilian" depart="390.3146462065657">
      <route edges="W_C C_S"/>
   </vehicle>
   <vehicle id="civilian_364" type="civilian" depart="390.838082363887">
      <route edges="N_C C_E"/>
   </vehicle>
   <vehicle id="emergency_118" type="emergency" depart="392.8665954149963">
      <route edges="E_C C_W"/>
   </vehicle>
   <vehicle id="civilian_129" type="civilian" depart="395.2958756401489">
      <route edges="N_C C_S"/>
   </vehicle>
   <vehicle id="civilian_858" type="civilian" depart="397.9889729733505">
      <route edges="S_C C_N"/>
   </vehicle>
   <vehicle id="civilian_287" type="civilian" depart="400.6897676820374">
      <route edges="N_C C_S"/>
   </vehicle>
   <vehicle id="civilian_839" type="civilian" depart="403.71260242171303">
      <route edges="N_C C_W"/>
   </vehicle>
   <vehicle id="civilian_110" type="civilian" depart="417.0808667772765">
      <route edges="S_C C_N"/>
   </vehicle>
   <vehicle id="emergency_111" type="emergency" depart="420.82364002904694">
      <route edges="S_C C_N"/>
   </vehicle>
   <vehicle id="civilian_394" type="civilian" depart="422.85265452275837">
      <route edges="W_C C_E"/>
   </vehicle>
   <vehicle id="civilian_241" type="civilian" depart="432.74035354455526">
      <route edges="E_C C_W"/>
   </vehicle>
   <vehicle id="civilian_947" type="civilian" depart="436.6024152025273">
      <route edges="N_C C_E"/>
   </vehicle>
   <vehicle id="civilian_519" type="civilian" depart="439.19439928658574">
      <route edges="W_C C_E"/>
   </vehicle>
   <vehicle id="civilian_111" type="civilian" depart="440.09140760351835">
      <route edges="E_C C_W"/>
   </vehicle>
   <vehicle id="civilian_747" type="civilian" depart="460.82786980859294">
      <route edges="W_C C_E"/>
   </vehicle>
   <vehicle id="emergency_163" type="emergency" depart="462.97018137871873">
      <route edges="E_C C_N"/>
   </vehicle>
   <vehicle id="civilian_597" type="civilian" depart="465.41212616639876">
      <route edges="S_C C_E"/>
   </vehicle>
   <vehicle id="emergency_82" type="emergency" depart="466.19821176671945">
      <route edges="W_C C_N"/>
   </vehicle>
   <vehicle id="civilian_777" type="civilian" depart="468.9644487628632">
      <route edges="S_C C_W"/>
   </vehicle>
   <vehicle id="civilian_26" type="civilian" depart="469.942499647917">
      <route edges="W_C C_E"/>
   </vehicle>
   <vehicle id="civilian_630" type="civilian" depart="470.47994658130364">
      <route edges="S_C C_E"/>
   </vehicle>
   <vehicle id="civilian_609" type="civilian" depart="473.36361811354834">
      <route edges="N_C C_S"/>
   </vehicle>
   <vehicle id="civilian_105" type="civilian" depart="473.9867664328456">
      <route edges="N_C C_W"/>
   </vehicle>
   <vehicle id="civilian_806" type="civilian" depart="474.53007815245013">
      <route edges="S_C C_E"/>
   </vehicle>
   <vehicle id="civilian_34" type="civilian" depart="477.05391622601803">
      <route edges="N_C C_W"/>
   </vehicle>
   <vehicle id="civilian_603" type="civilian" depart="477.3457760018029">
      <route edges="E_C C_N"/>
   </vehicle>
   <vehicle id="civilian_698" type="civilian" depart="483.61906059496147">
      <route edges="W_C C_E"/>
   </vehicle>
   <vehicle id="emergency_28" type="emergency" depart="484.91881350785235">
      <route edges="W_C C_E"/>
   </vehicle>
   <vehicle id="emergency_134" type="emergency" depart="490.3241070680829">
      <route edges="E_C C_W"/>
   </vehicle>
   <vehicle id="civilian_159" type="civilian" depart="495.03170296177404">
      <route edges="W_C C_E"/>
   </vehicle>
   <vehicle id="civilian_532" type="civilian" depart="496.3947513911303">
      <route edges="E_C C_S"/>
   </vehicle>
   <vehicle id="civilian_271" type="civilian" depart="498.4969262776753">
      <route edges="N_C C_E"/>
   </vehicle>
   <vehicle id="emergency_186" type="emergency" depart="503.18098501867047">
      <route edges="S_C C_N"/>
   </vehicle>
   <vehicle id="civilian_808" type="civilian" depart="510.3558333197825">
      <route edges="S_C C_N"/>
   </vehicle>
   <vehicle id="civilian_279" type="civilian" depart="511.4975311962938">
      <route edges="W_C C_S"/>
   </vehicle>
   <vehicle id="civilian_60" type="civilian" depart="516.8028196129894">
      <route edges="N_C C_S"/>
   </vehicle>
   <vehicle id="civilian_601" type="civilian" depart="517.0126203130092">
      <route edges="E_C C_W"/>
   </vehicle>
   <vehicle id="civilian_438" type="civilian" depart="528.0471352121923">
      <route edges="E_C C_N"/>
   </vehicle>
   <vehicle id="civilian_117" type="civilian" depart="536.2074147800391">
      <route edges="W_C C_N"/>
   </vehicle>
   <vehicle id="emergency_114" type="emergency" depart="542.9507033249563">
      <route edges="N_C C_S"/>
   </vehicle>
   <vehicle id="civilian_885" type="civilian" depart="546.991213894042">
      <route edges="S_C C_N"/>
   </vehicle>
   <vehicle id="emergency_175" type="emergency" depart="554.612445605122">
      <route edges="E_C C_N"/>
   </vehicle>
   <vehicle id="civilian_183" type="civilian" depart="557.0295214793574">
      <route edges="W_C C_S"/>
   </vehicle>
   <vehicle id="civilian_187" type="civilian" depart="564.1226027547855">
      <route edges="S_C C_E"/>
   </vehicle>
   <vehicle id="civilian_85" type="civilian" depart="570.6561259846062">
      <route edges="S_C C_W"/>
   </vehicle>
   <vehicle id="civilian_471" type="civilian" depart="573.1682854403497">
      <route edges="W_C C_E"/>
   </vehicle>
   <vehicle id="civilian_696" type="civilian" depart="577.903890184179">
      <route edges="S_C C_N"/>
   </vehicle>
   <vehicle id="civilian_250" type="civilian" depart="577.939217572142">
      <route edges="S_C C_W"/>
   </vehicle>
   <vehicle id="civilian_833" type="civilian" depart="578.5175403639822">
      <route edges="W_C C_S"/>
   </vehicle>
   <vehicle id="civilian_131" type="civilian" depart="593.2387168308106">
      <route edges="N_C C_S"/>
   </vehicle>
   <vehicle id="civilian_627" type="civilian" depart="594.3987695284126">
      <route edges="E_C C_N"/>
   </vehicle>
   <vehicle id="civilian_722" type="civilian" depart="594.4850526930117">
      <route edges="E_C C_W"/>
   </vehicle>
   <vehicle id="emergency_167" type="emergency" depart="594.9024386544188">
      <route edges="E_C C_S"/>
   </vehicle>
   <vehicle id="civilian_978" type="civilian" depart="594.958710256895">
      <route edges="E_C C_W"/>
   </vehicle>
   <vehicle id="emergency_95" type="emergency" depart="595.3527753964026">
      <route edges="W_C C_E"/>
   </vehicle>
   <vehicle id="civilian_918" type="civilian" depart="597.0472975728477">
      <route edges="S_C C_E"/>
   </vehicle>
   <vehicle id="emergency_183" type="emergency" depart="601.6402122782974">
      <route edges="S_C C_W"/>
   </vehicle>
   <vehicle id="civilian_291" type="civilian" depart="608.3618512786478">
      <route edges="N_C C_S"/>
   </vehicle>
   <vehicle id="civilian_904" type="civilian" depart="609.1151611911516">
      <route edges="W_C C_E"/>
   </vehicle>
   <vehicle id="civilian_579" type="civilian" depart="616.1151997528126">
      <route edges="W_C C_N"/>
   </vehicle>
   <vehicle id="emergency_100" type="emergency" depart="627.9607613847506">
      <route edges="S_C C_N"/>
   </vehicle>
   <vehicle id="civilian_567" type="civilian" depart="634.1664060373305">
      <route edges="E_C C_W"/>
   </vehicle>
   <vehicle id="civilian_44" type="civilian" depart="634.487177543001">
      <route edges="W_C C_E"/>
   </vehicle>
   <vehicle id="emergency_182" type="emergency" depart="639.5830610290286">
      <route edges="W_C C_E"/>
   </vehicle>
   <vehicle id="civilian_594" type="civilian" depart="639.8974682783887">
      <route edges="W_C C_N"/>
   </vehicle>
   <vehicle id="civilian_755" type="civilian" depart="640.2429151049995">
      <route edges="S_C C_W"/>
   </vehicle>
   <vehicle id="civilian_877" type="civilian" depart="642.2337352361403">
      <route edges="S_C C_N"/>
   </vehicle>
   <vehicle id="civilian_587" type="civilian" depart="642.7051156612972">
      <route edges="N_C C_W"/>
   </vehicle>
   <vehicle id="civilian_562" type="civilian" depart="644.219849802778">
      <route edges="E_C C_W"/>
   </vehicle>
   <vehicle id="civilian_716" type="civilian" depart="644.6303263314883">
      <route edges="E_C C_S"/>
   </vehicle>
   <vehicle id="civilian_469" type="civilian" depart="647.3041371695865">
      <route edges="N_C C_W"/>
   </vehicle>
   <vehicle id="emergency_130" type="emergency" depart="650.7624432199755">
      <route edges="N_C C_E"/>
   </vehicle>
   <vehicle id="civilian_395" type="civilian" depart="650.8113067816051">
      <route edges="W_C C_E"/>
   </vehicle>
   <vehicle id="civilian_541" type="civilian" depart="651.1714678304697">
      <route edges="W_C C_E"/>
   </vehicle>
   <vehicle id="civilian_775" type="civilian" depart="654.390503239957">
      <route edges="E_C C_W"/>
   </vehicle>
   <vehicle id="civilian_99" type="civilian" depart="656.4743958222911">
      <route edges="E_C C_W"/>
   </vehicle>
   <vehicle id="civilian_720" type="civilian" depart="668.9995409928376">
      <route edges="W_C C_S"/>
   </vehicle>
   <vehicle id="emergency_110" type="emergency" depart="669.7699541890455">
      <route edges="E_C C_N"/>
   </vehicle>
   <vehicle id="emergency_58" type="emergency" depart="670.9233941351513">
      <route edges="W_C C_E"/>
   </vehicle>
   <vehicle id="civilian_667" type="civilian" depart="678.3392638745041">
      <route edges="W_C C_E"/>
   </vehicle>
   <vehicle id="civilian_64" type="civilian" depart="680.5154163893096">
      <route edges="E_C C_N"/>
   </vehicle>
   <vehicle id="civilian_56" type="civilian" depart="680.7743338991902">
      <route edges="N_C C_S"/>
   </vehicle>
   <vehicle id="civilian_906" type="civilian" depart="681.282265583345">
      <route edges="N_C C_W"/>
   </vehicle>
   <vehicle id="civilian_179" type="civilian" depart="685.1378674276722">
      <route edges="W_C C_S"/>
   </vehicle>
   <vehicle id="civilian_535" type="civilian" depart="688.8882365148144">
      <route edges="E_C C_W"/>
   </vehicle>
   <vehicle id="civilian_116" type="civilian" depart="694.4249745653993">
      <route edges="E_C C_W"/>
   </vehicle>
   <vehicle id="civilian_914" type="civilian" depart="697.7669006693508">
      <route edges="E_C C_N"/>
   </vehicle>
   <vehicle id="civilian_92" type="civilian" depart="699.8401523610135">
      <route edges="W_C C_S"/>
   </vehicle>
   <vehicle id="emergency_123" type="emergency" depart="701.7707121677722">
      <route edges="S_C C_W"/>
   </vehicle>
   <vehicle id="civilian_275" type="civilian" depart="703.4975054735899">
      <route edges="S_C C_E"/>
   </vehicle>
   <vehicle id="emergency_43" type="emergency" depart="703.818986541378">
      <route edges="E_C C_W"/>
   </vehicle>
   <vehicle id="civilian_289" type="civilian" depart="707.019292788983">
      <route edges="E_C C_N"/>
   </vehicle>
   <vehicle id="emergency_144" type="emergency" depart="707.9371106550494">
      <route edges="E_C C_W"/>
   </vehicle>
   <vehicle id="civilian_812" type="civilian" depart="708.730724042386">
      <route edges="N_C C_S"/>
   </vehicle>
   <vehicle id="civilian_331" type="civilian" depart="710.5265959141286">
      <route edges="W_C C_E"/>
   </vehicle>
   <vehicle id="civilian_288" type="civilian" depart="714.6885677240683">
      <route edges="S_C C_W"/>
   </vehicle>
   <vehicle id="civilian_820" type="civilian" depart="730.0497354069007">
      <route edges="W_C C_E"/>
   </vehicle>
   <vehicle id="emergency_20" type="emergency" depart="732.5832084817619">
      <route edges="S_C C_N"/>
   </vehicle>
   <vehicle id="civilian_941" type="civilian" depart="735.9902434545616">
      <route edges="N_C C_E"/>
   </vehicle>
   <vehicle id="civilian_455" type="civilian" depart="739.224459334637">
      <route edges="S_C C_N"/>
   </vehicle>
   <vehicle id="emergency_51" type="emergency" depart="739.5137482242353">
      <route edges="N_C C_W"/>
   </vehicle>
   <vehicle id="civilian_367" type="civilian" depart="739.6455785348182">
      <route edges="E_C C_W"/>
   </vehicle>
   <vehicle id="civilian_285" type="civilian" depart="742.9568048140186">
      <route edges="E_C C_S"/>
   </vehicle>
   <vehicle id="civilian_583" type="civilian" depart="744.483834964593">
      <route edges="E_C C_S"/>
   </vehicle>
   <vehicle id="civilian_152" type="civilian" depart="746.5282033549227">
      <route edges="E_C C_W"/>
   </vehicle>
   <vehicle id="civilian_314" type="civilian" depart="746.8811885573078">
      <route edges="S_C C_W"/>
   </vehicle>
   <vehicle id="civilian_68" type="civilian" depart="749.0509537922367">
      <route edges="E_C C_N"/>
   </vehicle>
   <vehicle id="civilian_731" type="civilian" depart="749.2404714774275">
      <route edges="W_C C_S"/>
   </vehicle>
   <vehicle id="civilian_984" type="civilian" depart="749.9394608509008">
      <route edges="E_C C_W"/>
   </vehicle>
   <vehicle id="emergency_76" type="emergency" depart="749.9892081799397">
      <route edges="W_C C_S"/>
   </vehicle>
   <vehicle id="emergency_31" type="emergency" depart="760.1931967117928">
      <route edges="E_C C_W"/>
   </vehicle>
   <vehicle id="civilian_123" type="civilian" depart="761.0124125092955">
      <route edges="S_C C_N"/>
   </vehicle>
   <vehicle id="civilian_380" type="civilian" depart="761.8631944385536">
      <route edges="N_C C_W"/>
   </vehicle>
   <vehicle id="civilian_876" type="civilian" depart="762.5150803251191">
      <route edges="N_C C_S"/>
   </vehicle>
   <vehicle id="civilian_958" type="civilian" depart="764.6232423701952">
      <route edges="W_C C_N"/>
   </vehicle>
   <vehicle id="civilian_442" type="civilian" depart="767.0572003235928">
      <route edges="W_C C_N"/>
   </vehicle>
   <vehicle id="civilian_444" type="civilian" depart="768.4157114784506">
      <route edges="E_C C_S"/>
   </vehicle>
   <vehicle id="civilian_768" type="civilian" depart="780.4705525816175">
      <route edges="E_C C_W"/>
   </vehicle>
   <vehicle id="civilian_568" type="civilian" depart="785.9423179165929">
      <route edges="E_C C_W"/>
   </vehicle>
   <vehicle id="civilian_800" type="civilian" depart="787.1591907179512">
      <route edges="E_C C_N"/>
   </vehicle>
   <vehicle id="civilian_831" type="civilian" depart="791.3597809812653">
      <route edges="W_C C_N"/>
   </vehicle>
   <vehicle id="civilian_186" type="civilian" depart="791.6062788641183">
      <route edges="N_C C_W"/>
   </vehicle>
   <vehicle id="civilian_171" type="civilian" depart="792.6301807577524">
      <route edges="S_C C_E"/>
   </vehicle>
   <vehicle id="emergency_147" type="emergency" depart="792.7153923553958">
      <route edges="E_C C_N"/>
   </vehicle>
   <vehicle id="civilian_633" type="civilian" depart="795.682292608185">
      <route edges="E_C C_W"/>
   </vehicle>
   <vehicle id="emergency_192" type="emergency" depart="804.3481641324473">
      <route edges="W_C C_E"/>
   </vehicle>