<?xml version="1.0" ?>
<routes>
   <vType id="civilian" accel="2.6" decel="4.5" sigma="0.5" length="5" maxSpeed="13.89" color="0,1,0"/>
   <vType id="emergency" vClass="emergency" accel="3.5" decel="5.0" sigma="0" length="7" maxSpeed="20" color="1,0,0" guiShape="emergency">
      <param key="has.bluelight.device" value="true"/>
   </vType>
   <vehicle id="civilian_0" type="civilian" depart="30.54204686937103">
      <route edges="W_C C_N"/>
   </vehicle>
   <vehicle id="civilian_1" type="civilian" depart="754.0087856077349">
      <route edges="N_C C_S"/>
   </vehicle>
   <vehicle id="civilian_2" type="civilian" depart="3208.7874512953003">
      <route edges="S_C C_W"/>
   </vehicle>
   <vehicle id="civilian_3" type="civilian" depart="411.0218300109536">
      <route edges="N_C C_E"/>
   </vehicle>
   <vehicle id="civilian_4" type="civilian" depart="1715.1431077606233">
      <route edges="N_C C_S"/>
   </vehicle>
   <vehicle id="civilian_5" type="civilian" depart="1124.6879224909435">
      <route edges="N_C C_W"/>
   </vehicle>
   <vehicle id="civilian_6" type="civilian" depart="3593.6681945071264">
      <route edges="W_C C_E"/>
   </vehicle>
   <vehicle id="civilian_7" type="civilian" depart="1022.2832157960968">
      <route edges="S_C C_E"/>
   </vehicle>
   <vehicle id="civilian_8" type="civilian" depart="961.2020792268971">
      <route edges="N_C C_S"/>
   </vehicle>
   <vehicle id="civilian_9" type="civilian" depart="314.1654562725511">
      <route edges="W_C C_S"/>
   </vehicle>
   <vehicle id="civilian_10" type="civilian" depart="2464.3677186409946">
      <route edges="W_C C_E"/>
   </vehicle>
   <vehicle id="civilian_11" type="civilian" depart="804.3552574672292">
      <route edges="E_C C_W"/>
   </vehicle>
   <vehicle id="civilian_12" type="civilian" depart="1508.2575444332913">
      <route edges="N_C C_E"/>
   </vehicle>
   <vehicle id="civilian_13" type="civilian" depart="2461.226778036356">
      <route edges="W_C C_N"/>
   </vehicle>
   <vehicle id="civilian_14" type="civilian" depart="748.6619373630617">
      <route edges="N_C C_W"/>
   </vehicle>
   <vehicle id="civilian_15" type="civilian" depart="2509.634489123053">
      <route edges="N_C C_W"/>
   </vehicle>
   <vehicle id="civilian_16" type="civilian" depart="2257.947994029353">
      <route edges="N_C C_S"/>
   </vehicle>
   <vehicle id="civilian_17" type="civilian" depart="2355.9185381122">
      <route edges="W_C C_S"/>
   </vehicle>
   <vehicle id="civilian_18" type="civilian" depart="3220.620629655445">
      <route edges="S_C C_N"/>
   </vehicle>
   <vehicle id="civilian_19" type="civilian" depart="2646.976352689978">
      <route edges="E_C C_W"/>
   </vehicle>
   <vehicle id="civilian_20" type="civilian" depart="1564.1809216284546">
      <route edges="E_C C_S"/>
   </vehicle>
   <vehicle id="civilian_21" type="civilian" depart="2192.9764300816296">
      <route edges="S_C C_W"/>
   </vehicle>
   <vehicle id="civilian_22" type="civilian" depart="1641.5682346850826">
      <route edges="S_C C_W"/>
   </vehicle>
   <vehicle id="civilian_23" type="civilian" depart="2093.836984545285">
      <route edges="S_C C_W"/>
   </vehicle>
   <vehicle id="civilian_24" type="civilian" depart="1155.4606067255852">
      <route edges="W_C C_E"/>
   </vehicle>
   <vehicle id="civilian_25" type="civilian" depart="908.898410381404">
      <route edges="N_C C_E"/>
   </vehicle>
   <vehicle id="civilian_26" type="civilian" depart="922.0838369211928">
      <route edges="N_C C_W"/>
   </vehicle>
   <vehicle id="civilian_27" type="civilian" depart="7.910708048116399">
      <route edges="S_C C_W"/>
   </vehicle>
   <vehicle id="civilian_28" type="civilian" depart="2166.8655367563692">
      <route edges="S_C C_W"/>
   </vehicle>
   <vehicle id="civilian_29" type="civilian" depart="3372.8389422032424">
      <route edges="N_C C_E"/>
   </vehicle>
   <vehicle id="civilian_30" type="civilian" depart="1185.181063654923">
      <route edges="S_C C_E"/>
   </vehicle>
   <vehicle id="civilian_31" type="civilian" depart="1254.2412426299927">
      <route edges="N_C C_S"/>
   </vehicle>
   <vehicle id="civilian_32" type="civilian" depart="1272.2643038697765">
      <route edges="N_C C_S"/>
   </vehicle>
   <vehicle id="civilian_33" type="civilian" depart="1068.2174472976214">
      <route edges="W_C C_N"/>
   </vehicle>
   <vehicle id="civilian_34" type="civilian" depart="1633.942188161787">
      <route edges="E_C C_W"/>
   </vehicle>
   <vehicle id="civilian_35" type="civilian" depart="3230.313599922031">
      <route edges="N_C C_W"/>
   </vehicle>
   <vehicle id="civilian_36" type="civilian" depart="52.11218377003246">
      <route edges="W_C C_N"/>
   </vehicle>
   <vehicle id="civilian_37" type="civilian" depart="1435.5378570414266">
      <route edges="S_C C_N"/>
   </vehicle>
   <vehicle id="civilian_38" type="civilian" depart="2882.5091005586414">
      <route edges="E_C C_S"/>
   </vehicle>
   <vehicle id="civilian_39" type="civilian" depart="2360.7093207001726">
      <route edges="E_C C_N"/>
   </vehicle>
   <vehicle id="civilian_40" type="civilian" depart="2210.483266754074">
      <route edges="E_C C_N"/>
   </vehicle>
   <vehicle id="civilian_41" type="civilian" depart="2932.4582532847794">
      <route edges="N_C C_W"/>
   </vehicle>
   <vehicle id="civilian_42" type="civilian" depart="1642.9199383777427">
      <route edges="E_C C_S"/>
   </vehicle>
   <vehicle id="civilian_43" type="civilian" depart="994.4064038451619">
      <route edges="E_C C_W"/>
   </vehicle>
   <vehicle id="civilian_44" type="civilian" depart="387.39034933487534">
      <route edges="S_C C_N"/>
   </vehicle>
   <vehicle id="civilian_45" type="civilian" depart="2703.3936868536907">
      <route edges="E_C C_W"/>
   </vehicle>
   <vehicle id="civilian_46" type="civilian" depart="3057.9128455081823">
      <route edges="E_C C_W"/>
   </vehicle>
   <vehicle id="civilian_47" type="civilian" depart="1719.344454847464">
      <route edges="N_C C_E"/>
   </vehicle>
   <vehicle id="civilian_48" type="civilian" depart="1028.0573277140088">
      <route edges="S_C C_W"/>
   </vehicle>
   <vehicle id="civilian_49" type="civilian" depart="2924.1727790723135">
      <route edges="E_C C_N"/>
   </vehicle>
   <vehicle id="civilian_50" type="civilian" depart="3153.930437637662">
      <route edges="S_C C_W"/>
   </vehicle>
   <vehicle id="civilian_51" type="civilian" depart="2209.089195115381">
      <route edges="E_C C_N"/>
   </vehicle>
   <vehicle id="civilian_52" type="civilian" depart="2830.8089623103638">
      <route edges="E_C C_S"/>
   </vehicle>
   <vehicle id="civilian_53" type="civilian" depart="3261.8210322745445">
      <route edges="N_C C_W"/>
   </vehicle>
   <vehicle id="civilian_54" type="civilian" depart="1428.2605801494935">
      <route edges="E_C C_W"/>
   </vehicle>
   <vehicle id="civilian_55" type="civilian" depart="399.48703617293626">
      <route edges="S_C C_E"/>
   </vehicle>
   <vehicle id="civilian_56" type="civilian" depart="1409.660996725882">
      <route edges="E_C C_W"/>
   </vehicle>
   <vehicle id="civilian_57" type="civilian" depart="2935.1215050137616">
      <route edges="W_C C_E"/>
   </vehicle>
   <vehicle id="civilian_58" type="civilian" depart="1678.4340274637834">
      <route edges="N_C C_E"/>
   </vehicle>
   <vehicle id="civilian_59" type="civilian" depart="2181.7555624167544">
      <route edges="E_C C_N"/>
   </vehicle>
   <vehicle id="civilian_60" type="civilian" depart="2748.989546085371">
      <route edges="E_C C_W"/>
   </vehicle>
   <vehicle id="civilian_61" type="civilian" depart="856.0910638201037">
      <route edges="W_C C_E"/>
   </vehicle>
   <vehicle id="civilian_62" type="civilian" depart="3049.562846704305">
      <route edges="E_C C_W"/>
   </vehicle>
   <vehicle id="civilian_63" type="civilian" depart="204.49841160531182">
      <route edges="E_C C_N"/>
   </vehicle>
   <vehicle id="civilian_64" type="civilian" depart="645.2517306829316">
      <route edges="S_C C_W"/>
   </vehicle>
   <vehicle id="civilian_65" type="civilian" depart="2690.356674120184">
      <route edges="S_C C_E"/>
   </vehicle>
   <vehicle id="civilian_66" type="civilian" depart="3532.77910698366">
      <route edges="E_C C_S"/>
   </vehicle>
   <vehicle id="civilian_67" type="civilian" depart="1429.6967908549377">
      <route edges="S_C C_W"/>
   </vehicle>
   <vehicle id="civilian_68" type="civilian" depart="3559.294064027634">
      <route edges="W_C C_N"/>
   </vehicle>
   <vehicle id="civilian_69" type="civilian" depart="3262.9265588552735">
      <route edges="N_C C_E"/>
   </vehicle>
   <vehicle id="civilian_70" type="civilian" depart="3343.6787498540248">
      <route edges="E_C C_W"/>
   </vehicle>
   <vehicle id="civilian_71" type="civilian" depart="835.4645161824349">
      <route edges="S_C C_W"/>
   </vehicle>
   <vehicle id="civilian_72" type="civilian" depart="3452.325049397067">
      <route edges="N_C C_E"/>
   </vehicle>
   <vehicle id="civilian_73" type="civilian" depart="3248.473724147858">
      <route edges="S_C C_W"/>
   </vehicle>
   <vehicle id="civilian_74" type="civilian" depart="770.7891783871387">
      <route edges="S_C C_E"/>
   </vehicle>
   <vehicle id="civilian_75" type="civilian" depart="3039.6058729093875">
      <route edges="W_C C_N"/>
   </vehicle>
   <vehicle id="civilian_76" type="civilian" depart="2418.323689401198">
      <route edges="N_C C_E"/>
   </vehicle>
   <vehicle id="civilian_77" type="civilian" depart="1189.678595548005">
      <route edges="S_C C_E"/>
   </vehicle>
   <vehicle id="civilian_78" type="civilian" depart="214.20145632269484">
      <route edges="E_C C_S"/>
   </vehicle>
   <vehicle id="civilian_79" type="civilian" depart="2075.820776428786">
      <route edges="W_C C_N"/>
   </vehicle>
   <vehicle id="civilian_80" type="civilian" depart="1505.076769959586">
      <route edges="N_C C_S"/>
   </vehicle>
   <vehicle id="civilian_81" type="civilian" depart="797.8658782444699">
      <route edges="S_C C_N"/>
   </vehicle>
   <vehicle id="civilian_82" type="civilian" depart="1745.7509283623037">
      <route edges="S_C C_E"/>
   </vehicle>
   <vehicle id="civilian_83" type="civilian" depart="2060.7363279842207">
      <route edges="N_C C_E"/>
   </vehicle>
   <vehicle id="civilian_84" type="civilian" depart="632.7279309056034">
      <route edges="S_C C_W"/>
   </vehicle>
   <vehicle id="civilian_85" type="civilian" depart="1445.133934364048">
      <route edges="E_C C_N"/>
   </vehicle>
   <vehicle id="civilian_86" type="civilian" depart="3277.234572072273">
      <route edges="N_C C_W"/>
   </vehicle>
   <vehicle id="civilian_87" type="civilian" depart="4.2939167950612145">
      <route edges="N_C C_W"/>
   </vehicle>
   <vehicle id="civilian_88" type="civilian" depart="1477.5564534608304">
      <route edges="N_C C_E"/>
   </vehicle>
   <vehicle id="civilian_89" type="civilian" depart="2218.1057870019763">
      <route edges="S_C C_N"/>
   </vehicle>
   <vehicle id="civilian_90" type="civilian" depart="2140.740383122705">
      <route edges="W_C C_N"/>
   </vehicle>
   <vehicle id="civilian_91" type="civilian" depart="3314.3286883708483">
      <route edges="W_C C_S"/>
   </vehicle>
   <vehicle id="civilian_92" type="civilian" depart="3457.263011611957">
      <route edges="N_C C_E"/>
   </vehicle>
   <vehicle id="civilian_93" type="civilian" depart="2120.36855185087">
      <route edges="N_C C_W"/>
   </vehicle>
   <vehicle id="civilian_94" type="civilian" depart="3007.933873818617">
      <route edges="E_C C_S"/>
   </vehicle>
   <vehicle id="civilian_95" type="civilian" depart="1285.7817310704252">
      <route edges="N_C C_S"/>
   </vehicle>
   <vehicle id="civilian_96" type="civilian" depart="3491.8761215383597">
      <route edges="S_C C_E"/>
   </vehicle>
   <vehicle id="civilian_97" type="civilian" depart="3504.100126632849">
      <route edges="E_C C_S"/>
   </vehicle>
   <vehicle id="civilian_98" type="civilian" depart="443.6970429909523">
      <route edges="N_C C_W"/>
   </vehicle>
   <vehicle id="civilian_99" type="civilian" depart="2087.104644152506">
      <route edges="N_C C_W"/>
   </vehicle>
   <vehicle id="civilian_100" type="civilian" depart="2397.379553730312">
      <route edges="S_C C_W"/>
   </vehicle>
   <vehicle id="civilian_101" type="civilian" depart="523.4015852020065">
      <route edges="W_C C_S"/>
   </vehicle>
   <vehicle id="civilian_102" type="civilian" depart="1060.4265296990948">
      <route edges="S_C C_N"/>
   </vehicle>
   <vehicle id="civilian_103" type="civilian" depart="2939.5261370661046">
      <route edges="W_C C_N"/>
   </vehicle>
   <vehicle id="civilian_104" type="civilian" depart="737.7594737328924">
      <route edges="N_C C_E"/>
   </vehicle>
   <vehicle id="civilian_105" type="civilian" depart="2051.087132142168">
      <route edges="W_C C_S"/>
   </vehicle>
   <vehicle id="civilian_106" type="civilian" depart="3526.727144792985">
      <route edges="E_C C_S"/>
   </vehicle>
   <vehicle id="civilian_107" type="civilian" depart="1038.753459054742">
      <route edges="N_C C_W"/>
   </vehicle>
   <vehicle id="civilian_108" type="civilian" depart="1571.2087389575174">
      <route edges="E_C C_N"/>
   </vehicle>
   <vehicle id="civilian_109" type="civilian" depart="287.63460865050064">
      <route edges="S_C C_N"/>
   </vehicle>
   <vehicle id="civilian_110" type="civilian" depart="3064.2821473396443">
      <route edges="E_C C_N"/>
   </vehicle>
   <vehicle id="civilian_111" type="civilian" depart="1512.756994635886">
      <route edges="W_C C_N"/>
   </vehicle>
   <vehicle id="civilian_112" type="civilian" depart="3273.7862830314975">
      <route edges="W_C C_N"/>
   </vehicle>
   <vehicle id="civilian_113" type="civilian" depart="1598.8295106101684">
      <route edges="E_C C_S"/>
   </vehicle>
   <vehicle id="civilian_114" type="civilian" depart="1729.7835865408383">
      <route edges="N_C C_S"/>
   </vehicle>
   <vehicle id="civilian_115" type="civilian" depart="817.3333252400033">
      <route edges="S_C C_E"/>
   </vehicle>
   <vehicle id="civilian_116" type="civilian" depart="2095.891466107747">
      <route edges="E_C C_N"/>
   </vehicle>
   <vehicle id="civilian_117" type="civilian" depart="314.04711728619657">
      <route edges="N_C C_S"/>
   </vehicle>
   <vehicle id="civilian_118" type="civilian" depart="2289.8434846087644">
      <route edges="W_C C_N"/>
   </vehicle>
   <vehicle id="civilian_119" type="civilian" depart="1218.4300604231867">
      <route edges="N_C C_E"/>
   </vehicle>
   <vehicle id="civilian_120" type="civilian" depart="1974.7606634499416">
      <route edges="N_C C_W"/>
   </vehicle>
   <vehicle id="civilian_121" type="civilian" depart="3268.1102195704593">
      <route edges="N_C C_E"/>
   </vehicle>
   <vehicle id="civilian_122" type="civilian" depart="63.56283549160504">
      <route edges="W_C C_S"/>
   </vehicle>
   <vehicle id="civilian_123" type="civilian" depart="531.4558219664754">
      <route edges="E_C C_W"/>
   </vehicle>
   <vehicle id="civilian_124" type="civilian" depart="3253.1755279167974">
      <route edges="W_C C_S"/>
   </vehicle>
   <vehicle id="civilian_125" type="civilian" depart="957.1354453363712">
      <route edges="W_C C_N"/>
   </vehicle>
   <vehicle id="civilian_126" type="civilian" depart="1316.4089262773382">
      <route edges="W_C C_E"/>
   </vehicle>
   <vehicle id="civilian_127" type="civilian" depart="1083.5161197654263">
      <route edges="N_C C_S"/>
   </vehicle>
   <vehicle id="civilian_128" type="civilian" depart="1164.4829172158993">
      <route edges="N_C C_W"/>
   </vehicle>
   <vehicle id="civilian_129" type="civilian" depart="2650.62005992721">
      <route edges="E_C C_W"/>
   </vehicle>
   <vehicle id="civilian_130" type="civilian" depart="318.1676822190737">
      <route edges="E_C C_W"/>
   </vehicle>
   <vehicle id="civilian_131" type="civilian" depart="1211.8205708413723">
      <route edges="W_C C_N"/>
   </vehicle>
   <vehicle id="civilian_132" type="civilian" depart="1855.1499543857376">
      <route edges="N_C C_W"/>
   </vehicle>
   <vehicle id="civilian_133" type="civilian" depart="3099.988631510349">
      <route edges="N_C C_W"/>
   </vehicle>
   <vehicle id="civilian_134" type="civilian" depart="960.4589525069641">
      <route edges="N_C C_S"/>
   </vehicle>
   <vehicle id="civilian_135" type="civilian" depart="1077.5801109195575">
      <route edges="E_C C_N"/>
   </vehicle>
   <vehicle id="civilian_136" type="civilian" depart="3253.885571194615">
      <route edges="W_C C_E"/>
   </vehicle>
   <vehicle id="civilian_137" type="civilian" depart="1548.8024396144851">
      <route edges="E_C C_W"/>
   </vehicle>
   <vehicle id="civilian_138" type="civilian" depart="3059.94643270383">
      <route edges="S_C C_N"/>
   </vehicle>
   <vehicle id="civilian_139" type="civilian" depart="1976.4133238680333">
      <route edges="S_C C_N"/>
   </vehicle>
   <vehicle id="civilian_140" type="civilian" depart="2729.301602196395">
      <route edges="W_C C_S"/>
   </vehicle>
   <vehicle id="civilian_141" type="civilian" depart="244.81463592598297">
      <route edges="N_C C_E"/>
   </vehicle>
   <vehicle id="civilian_142" type="civilian" depart="1719.1887363427522">
      <route edges="S_C C_N"/>
   </vehicle>
   <vehicle id="civilian_143" type="civilian" depart="952.5477672052347">
      <route edges="N_C C_E"/>
   </vehicle>
   <vehicle id="civilian_144" type="civilian" depart="3243.5799549236813">
      <route edges="S_C C_W"/>
   </vehicle>
   <vehicle id="civilian_145" type="civilian" depart="853.5105564087495">
      <route edges="W_C C_N"/>
   </vehicle>
   <vehicle id="civilian_146" type="civilian" depart="2432.7143985008447">
      <route edges="E_C C_N"/>
   </vehicle>
   <vehicle id="civilian_147" type="civilian" depart="3355.217495353119">
      <route edges="W_C C_N"/>
   </vehicle>
   <vehicle id="civilian_148" type="civilian" depart="2790.6303806032483">
      <route edges="N_C C_S"/>
   </vehicle>
   <vehicle id="civilian_149" type="civilian" depart="534.8494060482606">
      <route edges="N_C C_S"/>
   </vehicle>
   <vehicle id="civilian_150" type="civilian" depart="2450.1179034418747">
      <route edges="W_C C_S"/>
   </vehicle>
   <vehicle id="civilian_151" type="civilian" depart="1847.9892501070738">
      <route edges="W_C C_E"/>
   </vehicle>
   <vehicle id="civilian_152" type="civilian" depart="92.21624038637421">
      <route edges="N_C C_W"/>
   </vehicle>
   <vehicle id="civilian_153" type="civilian" depart="2130.4264018474328">
      <route edges="N_C C_E"/>
   </vehicle>
   <vehicle id="civilian_154" type="civilian" depart="3247.946564071043">
      <route edges="E_C C_S"/>
   </vehicle>
   <vehicle id="civilian_155" type="civilian" depart="1459.24210217024">
      <route edges="S_C C_N"/>
   </vehicle>
   <vehicle id="civilian_156" type="civilian" depart="1442.9132912976856">
      <route edges="E_C C_N"/>
   </vehicle>
   <vehicle id="civilian_157" type="civilian" depart="155.2244781242571">
      <route edges="S_C C_W"/>
   </vehicle>
   <vehicle id="civilian_158" type="civilian" depart="3469.9460758254445">
      <route edges="W_C C_N"/>
   </vehicle>
   <vehicle id="civilian_159" type="civilian" depart="693.1154399411407">
      <route edges="S_C C_N"/>
   </vehicle>
   <vehicle id="civilian_160" type="civilian" depart="962.333960928766">
      <route edges="W_C C_N"/>
   </vehicle>
   <vehicle id="civilian_161" type="civilian" depart="816.1798322401556">
      <route edges="W_C C_E"/>
   </vehicle>
   <vehicle id="civilian_162" type="civilian" depart="3085.8675449731945">
      <route edges="N_C C_E"/>
   </vehicle>
   <vehicle id="civilian_163" type="civilian" depart="1619.241648104111">
      <route edges="W_C C_S"/>
   </vehicle>
   <vehicle id="civilian_164" type="civilian" depart="1041.6662623938482">
      <route edges="N_C C_S"/>
   </vehicle>
   <vehicle id="civilian_165" type="civilian" depart="2329.7098673466303">
      <route edges="S_C C_E"/>
   </vehicle>
   <vehicle id="civilian_166" type="civilian" depart="1419.1305776540082">
      <route edges="S_C C_N"/>
   </vehicle>
   <vehicle id="civilian_167" type="civilian" depart="2979.218133057777">
      <route edges="W_C C_E"/>
   </vehicle>
   <vehicle id="civilian_168" type="civilian" depart="812.8520445648312">
      <route edges="S_C C_E"/>
   </vehicle>
   <vehicle id="civilian_169" type="civilian" depart="575.878422950213">
      <route edges="W_C C_S"/>
   </vehicle>
   <vehicle id="civilian_170" type="civilian" depart="2394.452920419584">
      <route edges="N_C C_S"/>
   </vehicle>
   <vehicle id="civilian_171" type="civilian" depart="2320.9975957604247">
      <route edges="W_C C_E"/>
   </vehicle>
   <vehicle id="civilian_172" type="civilian" depart="2019.3900516920594">
      <route edges="E_C C_S"/>
   </vehicle>
   <vehicle id="civilian_173" type="civilian" depart="2088.348165473787">
      <route edges="N_C C_S"/>
   </vehicle>
   <vehicle id="civilian_174" type="civilian" depart="128.6120644362168">
      <route edges="N_C C_S"/>
   </vehicle>
   <vehicle id="civilian_175" type="civilian" depart="1011.941445944361">
      <route edges="E_C C_N"/>
   </vehicle>
   <vehicle id="civilian_176" type="civilian" depart="3125.106804299857">
      <route edges="W_C C_E"/>
   </vehicle>
   <vehicle id="civilian_177" type="civilian" depart="87.66410173570263">
      <route edges="N_C C_E"/>
   </vehicle>
   <vehicle id="civilian_178" type="civilian" depart="1956.7241341340327">
      <route edges="E_C C_S"/>
   </vehicle>
   <vehicle id="civilian_179" type="civilian" depart="1249.886321887626">
      <route edges="S_C C_E"/>
   </vehicle>
   <vehicle id="civilian_180" type="civilian" depart="3554.8810042113573">
      <route edges="W_C C_N"/>
   </vehicle>
   <vehicle id="civilian_181" type="civilian" depart="344.905595028274">
      <route edges="W_C C_E"/>
   </vehicle>
   <vehicle id="civilian_182" type="civilian" depart="3119.000603238081">
      <route edges="S_C C_W"/>
   </vehicle>
   <vehicle id="civilian_183" type="civilian" depart="1228.736233950715">
      <route edges="E_C C_S"/>
   </vehicle>
   <vehicle id="civilian_184" type="civilian" depart="1986.5992392654532">
      <route edges="W_C C_S"/>
   </vehicle>
   <vehicle id="civilian_185" type="civilian" depart="2713.0788566097713">
      <route edges="S_C C_N"/>
   </vehicle>
   <vehicle id="civilian_186" type="civilian" depart="2251.5667695068264">
      <route edges="N_C C_S"/>
   </vehicle>
   <vehicle id="civilian_187" type="civilian" depart="1397.0189997619334">
      <route edges="S_C C_W"/>
   </vehicle>
   <vehicle id="civilian_188" type="civilian" depart="413.03292682122816">
      <route edges="W_C C_E"/>
   </vehicle>
   <vehicle id="civilian_189" type="civilian" depart="748.5193743903543">
      <route edges="W_C C_E"/>
   </vehicle>
   <vehicle id="civilian_190" type="civilian" depart="1097.250476333669">
      <route edges="E_C C_N"/>
   </vehicle>
   <vehicle id="civilian_191" type="civilian" depart="1165.072795057911">
      <route edges="W_C C_E"/>
   </vehicle>
   <vehicle id="civilian_192" type="civilian" depart="3479.7056521984687">
      <route edges="N_C C_S"/>
   </vehicle>
   <vehicle id="civilian_193" type="civilian" depart="1877.7163375523148">
      <route edges="E_C C_N"/>
   </vehicle>
   <vehicle id="civilian_194" type="civilian" depart="3480.214474842393">
      <route edges="E_C C_W"/>
   </vehicle>
   <vehicle id="civilian_195" type="civilian" depart="3483.494830078578">
      <route edges="W_C C_N"/>
   </vehicle>
   <vehicle id="civilian_196" type="civilian" depart="2962.728424055082">
      <route edges="S_C C_W"/>
   </vehicle>
   <vehicle id="civilian_197" type="civilian" depart="340.72293831557874">
      <route edges="E_C C_N"/>
   </vehicle>
   <vehicle id="civilian_198" type="civilian" depart="3527.7346586444473">
      <route edges="N_C C_S"/>
   </vehicle>
   <vehicle id="civilian_199" type="civilian" depart="2466.290714493085">
      <route edges="N_C C_E"/>
   </vehicle>
   <vehicle id="civilian_200" type="civilian" depart="814.4999496085624">
      <route edges="W_C C_N"/>
   </vehicle>
   <vehicle id="civilian_201" type="civilian" depart="294.9317360558188">
      <route edges="N_C C_S"/>
   </vehicle>
   <vehicle id="civilian_202" type="civilian" depart="1105.466423976979">
      <route edges="S_C C_N"/>
   </vehicle>
   <vehicle id="civilian_203" type="civilian" depart="231.08956466713536">
      <route edges="S_C C_E"/>
   </vehicle>
   <vehicle id="civilian_204" type="civilian" depart="1278.5689647849003">
      <route edges="W_C C_S"/>
   </vehicle>
   <vehicle id="civilian_205" type="civilian" depart="1335.7641081957206">
      <route edges="E_C C_S"/>
   </vehicle>
   <vehicle id="civilian_206" type="civilian" depart="2399.151614958057">
      <route edges="E_C C_S"/>
   </vehicle>
   <vehicle id="civilian_207" type="civilian" depart="1017.794799969666">
      <route edges="N_C C_S"/>
   </vehicle>
   <vehicle id="civilian_208" type="civilian" depart="1045.4020481536368">
      <route edges="S_C C_E"/>
   </vehicle>
   <vehicle id="civilian_209" type="civilian" depart="819.7221079401609">
      <route edges="N_C C_E"/>
   </vehicle>
   <vehicle id="civilian_210" type="civilian" depart="2593.553556018943">
      <route edges="W_C C_E"/>
   </vehicle>
   <vehicle id="civilian_211" type="civilian" depart="994.1311385196029">
      <route edges="S_C C_N"/>
   </vehicle>
   <vehicle id="civilian_212" type="civilian" depart="1948.517538464925">
      <route edges="E_C C_S"/>
   </vehicle>
   <vehicle id="civilian_213" type="civilian" depart="2557.8312924444003">
      <route edges="N_C C_S"/>
   </vehicle>
   <vehicle id="civilian_214" type="civilian" depart="785.8399509935426">
      <route edges="N_C C_W"/>
   </vehicle>
   <vehicle id="civilian_215" type="civilian" depart="2911.9452909301385">
      <route edges="W_C C_E"/>
   </vehicle>
   <vehicle id="civilian_216" type="civilian" depart="1344.823299438329">
      <route edges="E_C C_N"/>
   </vehicle>
   <vehicle id="civilian_217" type="civilian" depart="2702.471301577106">
      <route edges="E_C C_W"/>
   </vehicle>
   <vehicle id="civilian_218" type="civilian" depart="2155.7358864962303">
      <route edges="W_C C_E"/>
   </vehicle>
   <vehicle id="civilian_219" type="civilian" depart="1659.97707430476">
      <route edges="E_C C_N"/>
   </vehicle>
   <vehicle id="civilian_220" type="civilian" depart="2551.7617681096917">
      <route edges="W_C C_N"/>
   </vehicle>
   <vehicle id="civilian_221" type="civilian" depart="3480.4885033532078">
      <route edges="W_C C_S"/>
   </vehicle>
   <vehicle id="civilian_222" type="civilian" depart="2212.179932227808">
      <route edges="N_C C_E"/>
   </vehicle>
   <vehicle id="civilian_223" type="civilian" depart="2887.7319183378872">
      <route edges="N_C C_E"/>
   </vehicle>
   <vehicle id="civilian_224" type="civilian" depart="3374.4834978881418">
      <route edges="S_C C_N"/>
   </vehicle>
   <vehicle id="civilian_225" type="civilian" depart="1556.5079963731196">
      <route edges="E_C C_S"/>
   </vehicle>
   <vehicle id="civilian_226" type="civilian" depart="3089.183743586799">
      <route edges="S_C C_E"/>
   </vehicle>
   <vehicle id="civilian_227" type="civilian" depart="848.4558841077559">
      <route edges="S_C C_N"/>
   </vehicle>
   <vehicle id="civilian_228" type="civilian" depart="2980.1241649832773">
      <route edges="N_C C_E"/>
   </vehicle>
   <vehicle id="civilian_229" type="civilian" depart="1892.5554495404153">
      <route edges="E_C C_N"/>
   </vehicle>
   <vehicle id="civilian_230" type="civilian" depart="796.7108966182684">
      <route edges="E_C C_W"/>
   </vehicle>
   <vehicle id="civilian_231" type="civilian" depart="2366.19300559924">
      <route edges="E_C C_S"/>
   </vehicle>
   <vehicle id="civilian_232" type="civilian" depart="3066.7487395178573">
      <route edges="E_C C_S"/>
   </vehicle>
   <vehicle id="civilian_233" type="civilian" depart="2678.759588448426">
      <route edges="N_C C_S"/>
   </vehicle>
   <vehicle id="civilian_234" type="civilian" depart="2545.0088360988557">
      <route edges="E_C C_S"/>
   </vehicle>
   <vehicle id="civilian_235" type="civilian" depart="2586.225797578371">
      <route edges="S_C C_E"/>
   </vehicle>
   <vehicle id="civilian_236" type="civilian" depart="1934.133014420844">
      <route edges="W_C C_N"/>
   </vehicle>
   <vehicle id="civilian_237" type="civilian" depart="1246.4718369836596">
      <route edges="E_C C_N"/>
   </vehicle>
   <vehicle id="civilian_238" type="civilian" depart="2098.2376915663294">
      <route edges="N_C C_S"/>
   </vehicle>
   <vehicle id="civilian_239" type="civilian" depart="64.20863649226507">
      <route edges="E_C C_S"/>
   </vehicle>
   <vehicle id="civilian_240" type="civilian" depart="1601.1042614642777">
      <route edges="S_C C_N"/>
   </vehicle>
   <vehicle id="civilian_241" type="civilian" depart="3330.182120983643">
      <route edges="E_C C_W"/>
   </vehicle>
   <vehicle id="civilian_242" type="civilian" depart="2389.1341937230945">
      <route edges="N_C C_S"/>
   </vehicle>
   <vehicle id="civilian_243" type="civilian" depart="2176.7058607141284">
      <route edges="N_C C_E"/>
   </vehicle>
   <vehicle id="civilian_244" type="civilian" depart="1290.9065562153687">
      <route edges="N_C C_S"/>
   </vehicle>
   <vehicle id="civilian_245" type="civilian" depart="1102.167594639447">
      <route edges="S_C C_E"/>
   </vehicle>
   <vehicle id="civilian_246" type="civilian" depart="928.0991517031359">
      <route edges="S_C C_W"/>
   </vehicle>
   <vehicle id="civilian_247" type="civilian" depart="2398.0801517206046">
      <route edges="E_C C_N"/>
   </vehicle>
   <vehicle id="civilian_248" type="civilian" depart="1098.0248634264863">
      <route edges="W_C C_E"/>
   </vehicle>