<?xml version="1.0" ?>
<routes>
   <vType id="civilian" accel="2.6" decel="4.5" sigma="0.5" length="5" maxSpeed="13.89" color="0,1,0"/>
   <vType id="emergency" vClass="emergency" accel="3.5" decel="5.0" sigma="0" length="7" maxSpeed="20" color="1,0,0" guiShape="emergency">
      <param key="has.bluelight.device" value="true"/>
   </vType>
   <vehicle id="civilian_0" type="civilian" depart="0.0">
      <route edges="E_C C_N"/>
   </vehicle>
   <vehicle id="civilian_1" type="civilian" depart="3.6">
      <route edges="E_C C_S"/>
   </vehicle>
   <vehicle id="civilian_2" type="civilian" depart="7.2">
      <route edges="W_C C_E"/>
   </vehicle>
   <vehicle id="civilian_3" type="civilian" depart="10.8">
      <route edges="E_C C_S"/>
   </vehicle>
   <vehicle id="civilian_4" type="civilian" depart="14.4">
      <route edges="S_C C_E"/>
   </vehicle>
   <vehicle id="civilian_5" type="civilian" depart="18.0">
      <route edges="E_C C_W"/>
   </vehicle>
   <vehicle id="civilian_6" type="civilian" depart="21.6">
      <route edges="N_C C_S"/>
   </vehicle>
   <vehicle id="civilian_7" type="civilian" depart="25.2">
      <route edges="E_C C_N"/>
   </vehicle>
   <vehicle id="civilian_8" type="civilian" depart="28.8">
      <route edges="W_C C_N"/>
   </vehicle>
   <vehicle id="civilian_9" type="civilian" depart="32.4">
      <route edges="N_C C_S"/>
   </vehicle>
   <vehicle id="civilian_10" type="civilian" depart="36.0">
      <route edges="N_C C_E"/>
   </vehicle>
   <vehicle id="civilian_11" type="civilian" depart="39.6">
      <route edges="W_C C_S"/>
   </vehicle>
   <vehicle id="civilian_12" type="civilian" depart="43.2">
      <route edges="W_C C_E"/>
   </vehicle>
   <vehicle id="civilian_13" type="civilian" depart="46.800000000000004">
      <route edges="W_C C_S"/>
   </vehicle>
   <vehicle id="civilian_14" type="civilian" depart="50.4">
      <route edges="S_C C_W"/>
   </vehicle>
   <vehicle id="civilian_15" type="civilian" depart="54.0">
      <route edges="N_C C_S"/>
   </vehicle>
   <vehicle id="civilian_16" type="civilian" depart="57.6">
      <route edges="E_C C_N"/>
   </vehicle>
   <vehicle id="civilian_17" type="civilian" depart="61.2">
      <route edges="S_C C_W"/>
   </vehicle>
   <vehicle id="civilian_18" type="civilian" depart="64.8">
      <route edges="S_C C_E"/>
   </vehicle>
   <vehicle id="civilian_19" type="civilian" depart="68.4">
      <route edges="S_C C_N"/>
   </vehicle>
   <vehicle id="civilian_20" type="civilian" depart="72.0">
      <route edges="N_C C_W"/>
   </vehicle>
   <vehicle id="civilian_21" type="civilian" depart="75.60000000000001">
      <route edges="W_C C_S"/>
   </vehicle>
   <vehicle id="civilian_22" type="civilian" depart="79.2">
      <route edges="W_C C_S"/>
   </vehicle>
   <vehicle id="civilian_23" type="civilian" depart="82.8">
      <route edges="W_C C_E"/>
   </vehicle>
   <vehicle id="civilian_24" type="civilian" depart="86.4">
      <route edges="E_C C_S"/>
   </vehicle>
   <vehicle id="civilian_25" type="civilian" depart="90.0">
      <route edges="E_C C_S"/>
   </vehicle>
   <vehicle id="civilian_26" type="civilian" depart="93.60000000000001">
      <route edges="E_C C_W"/>
   </vehicle>
   <vehicle id="civilian_27" type="civilian" depart="97.2">
      <route edges="E_C C_N"/>
   </vehicle>
   <vehicle id="civilian_28" type="civilian" depart="100.8">
      <route edges="W_C C_N"/>
   </vehicle>
   <vehicle id="civilian_29" type="civilian" depart="104.4">
      <route edges="E_C C_N"/>
   </vehicle>
   <vehicle id="civilian_30" type="civilian" depart="108.0">
      <route edges="W_C C_N"/>
   </vehicle>
   <vehicle id="civilian_31" type="civilian" depart="111.60000000000001">
      <route edges="W_C C_N"/>
   </vehicle>
   <vehicle id="civilian_32" type="civilian" depart="115.2">
      <route edges="W_C C_N"/>
   </vehicle>
   <vehicle id="emergency_3" type="emergency" depart="117.02840562030836">
      <route edges="E_C C_W"/>
   </vehicle>
   <vehicle id="civilian_33" type="civilian" depart="118.8">
      <route edges="S_C C_E"/>
   </vehicle>
   <vehicle id="emergency_158" type="emergency" depart="119.87277575638322">
      <route edges="E_C C_W"/>
   </vehicle>
   <vehicle id="civilian_34" type="civilian" depart="122.4">
      <route edges="N_C C_S"/>
   </vehicle>
   <vehicle id="emergency_168" type="emergency" depart="123.4113236734585">
      <route edges="S_C C_N"/>
   </vehicle>
   <vehicle id="civilian_35" type="civilian" depart="126.0">
      <route edges="N_C C_E"/>
   </vehicle>
   <vehicle id="emergency_115" type="emergency" depart="127.54193922968555">
      <route edges="S_C C_N"/>
   </vehicle>
   <vehicle id="civilian_36" type="civilian" depart="129.6">
      <route edges="E_C C_S"/>
   </vehicle>
   <vehicle id="civilian_37" type="civilian" depart="133.20000000000002">
      <route edges="S_C C_N"/>
   </vehicle>
   <vehicle id="civilian_38" type="civilian" depart="136.8">
      <route edges="N_C C_S"/>
   </vehicle>
   <vehicle id="civilian_39" type="civilian" depart="140.4">
      <route edges="E_C C_N"/>
   </vehicle>
   <vehicle id="emergency_172" type="emergency" depart="142.20987924484456">
      <route edges="E_C C_W"/>
   </vehicle>
   <vehicle id="civilian_40" type="civilian" depart="144.0">
      <route edges="N_C C_S"/>
   </vehicle>
   <vehicle id="civilian_41" type="civilian" depart="147.6">
      <route edges="E_C C_S"/>
   </vehicle>
   <vehicle id="civilian_42" type="civilian" depart="151.20000000000002">
      <route edges="S_C C_W"/>
   </vehicle>
   <vehicle id="civilian_43" type="civilian" depart="154.8">
      <route edges="S_C C_E"/>
   </vehicle>
   <vehicle id="emergency_165" type="emergency" depart="156.9405570343338">
      <route edges="E_C C_W"/>
   </vehicle>
   <vehicle id="civilian_44" type="civilian" depart="158.4">
      <route edges="E_C C_W"/>
   </vehicle>
   <vehicle id="civilian_45" type="civilian" depart="162.0">
      <route edges="E_C C_N"/>
   </vehicle>
   <vehicle id="civilian_46" type="civilian" depart="165.6">
      <route edges="E_C C_N"/>
   </vehicle>
   <vehicle id="civilian_47" type="civilian" depart="169.20000000000002">
      <route edges="E_C C_N"/>
   </vehicle>
   <vehicle id="civilian_48" type="civilian" depart="172.8">
      <route edges="W_C C_E"/>
   </vehicle>
   <vehicle id="civilian_49" type="civilian" depart="176.4">
      <route edges="E_C C_N"/>
   </vehicle>
   <vehicle id="emergency_183" type="emergency" depart="178.1538823262561">
      <route edges="E_C C_W"/>
   </vehicle>
   <vehicle id="civilian_50" type="civilian" depart="180.0">
      <route edges="E_C C_S"/>
   </vehicle>
   <vehicle id="civilian_51" type="civilian" depart="183.6">
      <route edges="W_C C_E"/>
   </vehicle>
   <vehicle id="emergency_73" type="emergency" depart="185.8188652086551">
      <route edges="E_C C_W"/>
   </vehicle>
   <vehicle id="civilian_52" type="civilian" depart="187.20000000000002">
      <route edges="W_C C_S"/>
   </vehicle>
   <vehicle id="civilian_53" type="civilian" depart="190.8">
      <route edges="W_C C_S"/>
   </vehicle>
   <vehicle id="civilian_54" type="civilian" depart="194.4">
      <route edges="E_C C_S"/>
   </vehicle>
   <vehicle id="emergency_105" type="emergency" depart="195.18827616740322">
      <route edges="N_C C_S"/>
   </vehicle>
   <vehicle id="emergency_86" type="emergency" depart="196.62850504433192">
      <route edges="N_C C_S"/>
   </vehicle>
   <vehicle id="civilian_55" type="civilian" depart="198.0">
      <route edges="W_C C_E"/>
   </vehicle>
   <vehicle id="civilian_56" type="civilian" depart="201.6">
      <route edges="N_C C_E"/>
   </vehicle>
   <vehicle id="civilian_57" type="civilian" depart="205.20000000000002">
      <route edges="S_C C_N"/>
   </vehicle>
   <vehicle id="civilian_58" type="civilian" depart="208.8">
      <route edges="E_C C_S"/>
   </vehicle>
   <vehicle id="emergency_51" type="emergency" depart="209.05080162524388">
      <route edges="S_C C_N"/>
   </vehicle>
   <vehicle id="civilian_59" type="civilian" depart="212.4">
      <route edges="W_C C_E"/>
   </vehicle>
   <vehicle id="civilian_60" type="civilian" depart="216.0">
      <route edges="W_C C_E"/>
   </vehicle>
   <vehicle id="emergency_141" type="emergency" depart="219.4420642595863">
      <route edges="N_C C_S"/>
   </vehicle>
   <vehicle id="civilian_61" type="civilian" depart="219.6">
      <route edges="E_C C_W"/>
   </vehicle>
   <vehicle id="civilian_62" type="civilian" depart="223.20000000000002">
      <route edges="W_C C_S"/>
   </vehicle>
   <vehicle id="civilian_63" type="civilian" depart="226.8">
      <route edges="W_C C_N"/>
   </vehicle>
   <vehicle id="civilian_64" type="civilian" depart="230.4">
      <route edges="N_C C_E"/>
   </vehicle>
   <vehicle id="civilian_65" type="civilian" depart="234.0">
      <route edges="S_C C_W"/>
   </vehicle>
   <vehicle id="civilian_66" type="civilian" depart="237.6">
      <route edges="E_C C_S"/>
   </vehicle>
   <vehicle id="civilian_67" type="civilian" depart="241.20000000000002">
      <route edges="N_C C_W"/>
   </vehicle>
   <vehicle id="civilian_68" type="civilian" depart="244.8">
      <route edges="W_C C_N"/>
   </vehicle>
   <vehicle id="civilian_69" type="civilian" depart="248.4">
      <route edges="W_C C_S"/>
   </vehicle>
   <vehicle id="civilian_70" type="civilian" depart="252.0">
      <route edges="E_C C_N"/>
   </vehicle>
   <vehicle id="emergency_145" type="emergency" depart="253.45815191088533">
      <route edges="S_C C_N"/>
   </vehicle>
   <vehicle id="civilian_71" type="civilian" depart="255.6">
      <route edges="N_C C_S"/>
   </vehicle>
   <vehicle id="emergency_153" type="emergency" depart="258.6243913819228">
      <route edges="N_C C_S"/>
   </vehicle>
   <vehicle id="civilian_72" type="civilian" depart="259.2">
      <route edges="E_C C_S"/>
   </vehicle>
   <vehicle id="civilian_73" type="civilian" depart="262.8">
      <route edges="W_C C_S"/>
   </vehicle>
   <vehicle id="civilian_74" type="civilian" depart="266.40000000000003">
      <route edges="E_C C_N"/>
   </vehicle>
   <vehicle id="civilian_75" type="civilian" depart="270.0">
      <route edges="S_C C_E"/>
   </vehicle>
   <vehicle id="emergency_127" type="emergency" depart="273.58624508349817">
      <route edges="N_C C_S"/>
   </vehicle>
   <vehicle id="civilian_76" type="civilian" depart="273.6">
      <route edges="S_C C_E"/>
   </vehicle>
   <vehicle id="emergency_190" type="emergency" depart="275.3648040962113">
      <route edges="W_C C_E"/>
   </vehicle>
   <vehicle id="civilian_77" type="civilian" depart="277.2">
      <route edges="E_C C_S"/>
   </vehicle>
   <vehicle id="civilian_78" type="civilian" depart="280.8">
      <route edges="S_C C_N"/>
   </vehicle>
   <vehicle id="civilian_79" type="civilian" depart="284.40000000000003">
      <route edges="N_C C_S"/>
   </vehicle>
   <vehicle id="civilian_80" type="civilian" depart="288.0">
      <route edges="W_C C_S"/>
   </vehicle>
   <vehicle id="civilian_81" type="civilian" depart="291.6">
      <route edges="W_C C_E"/>
   </vehicle>
   <vehicle id="civilian_82" type="civilian" depart="295.2">
      <route edges="N_C C_S"/>
   </vehicle>
   <vehicle id="civilian_83" type="civilian" depart="298.8">
      <route edges="E_C C_W"/>
   </vehicle>
   <vehicle id="civilian_84" type="civilian" depart="302.40000000000003">
      <route edges="S_C C_E"/>
   </vehicle>
   <vehicle id="civilian_85" type="civilian" depart="306.0">
      <route edges="W_C C_S"/>
   </vehicle>
   <vehicle id="civilian_86" type="civilian" depart="309.6">
      <route edges="N_C C_S"/>
   </vehicle>
   <vehicle id="civilian_87" type="civilian" depart="313.2">
      <route edges="N_C C_S"/>
   </vehicle>
   <vehicle id="emergency_177" type="emergency" depart="315.51663270747787">
      <route edges="E_C C_W"/>
   </vehicle>
   <vehicle id="civilian_88" type="civilian" depart="316.8">
      <route edges="N_C C_W"/>
   </vehicle>
   <vehicle id="civilian_89" type="civilian" depart="320.40000000000003">
      <route edges="N_C C_E"/>
   </vehicle>
   <vehicle id="civilian_90" type="civilian" depart="324.0">
      <route edges="W_C C_S"/>
   </vehicle>
   <vehicle id="emergency_178" type="emergency" depart="325.21644495199143">
      <route edges="W_C C_E"/>
   </vehicle>
   <vehicle id="civilian_91" type="civilian" depart="327.6">
      <route edges="W_C C_E"/>
   </vehicle>
   <vehicle id="civilian_92" type="civilian" depart="331.2">
      <route edges="N_C C_S"/>
   </vehicle>
   <vehicle id="civilian_93" type="civilian" depart="334.8">
      <route edges="N_C C_W"/>
   </vehicle>
   <vehicle id="civilian_94" type="civilian" depart="338.40000000000003">
      <route edges="N_C C_E"/>
   </vehicle>
   <vehicle id="civilian_95" type="civilian" depart="342.0">
      <route edges="S_C C_E"/>
   </vehicle>
   <vehicle id="civilian_96" type="civilian" depart="345.6">
      <route edges="E_C C_N"/>
   </vehicle>
   <vehicle id="emergency_191" type="emergency" depart="348.1552133956176">
      <route edges="E_C C_W"/>
   </vehicle>
   <vehicle id="emergency_151" type="emergency" depart="348.23114239463496">
      <route edges="W_C C_E"/>
   </vehicle>
   <vehicle id="civilian_97" type="civilian" depart="349.2">
      <route edges="W_C C_S"/>
   </vehicle>
   <vehicle id="civilian_98" type="civilian" depart="352.8">
      <route edges="S_C C_E"/>
   </vehicle>
   <vehicle id="civilian_99" type="civilian" depart="356.40000000000003">
      <route edges="E_C C_N"/>
   </vehicle>
   <vehicle id="civilian_100" type="civilian" depart="360.0">
      <route edges="S_C C_N"/>
   </vehicle>
   <vehicle id="civilian_101" type="civilian" depart="363.6">
      <route edges="N_C C_E"/>
   </vehicle>
   <vehicle id="civilian_102" type="civilian" depart="367.2">
      <route edges="N_C C_S"/>
   </vehicle>
   <vehicle id="civilian_103" type="civilian" depart="370.8">
      <route edges="E_C C_W"/>
   </vehicle>
   <vehicle id="emergency_27" type="emergency" depart="370.87885809902076">
      <route edges="E_C C_W"/>
   </vehicle>
   <vehicle id="civilian_104" type="civilian" depart="374.40000000000003">
      <route edges="S_C C_N"/>
   </vehicle>
   <vehicle id="civilian_105" type="civilian" depart="378.0">
      <route edges="S_C C_W"/>
   </vehicle>
   <vehicle id="emergency_21" type="emergency" depart="378.21214430393275">
      <route edges="N_C C_S"/>
   </vehicle>
   <vehicle id="civilian_106" type="civilian" depart="381.6">
      <route edges="S_C C_N"/>
   </vehicle>
   <vehicle id="civilian_107" type="civilian" depart="385.2">
      <route edges="E_C C_W"/>
   </vehicle>
   <vehicle id="civilian_108" type="civilian" depart="388.8">
      <route edges="E_C C_S"/>
   </vehicle>
   <vehicle id="civilian_109" type="civilian" depart="392.40000000000003">
      <route edges="N_C C_E"/>
   </vehicle>
   <vehicle id="emergency_83" type="emergency" depart="393.545094798779">
      <route edges="S_C C_N"/>
   </vehicle>
   <vehicle id="civilian_110" type="civilian" depart="396.0">
      <route edges="E_C C_W"/>
   </vehicle>
   <vehicle id="civilian_111" type="civilian" depart="399.6">
      <route edges="N_C C_E"/>
   </vehicle>
   <vehicle id="civilian_112" type="civilian" depart="403.2">
      <route edges="E_C C_S"/>
   </vehicle>
   <vehicle id="emergency_102" type="emergency" depart="405.5959050323561">
      <route edges="E_C C_W"/>
   </vehicle>
   <vehicle id="civilian_113" type="civilian" depart="406.8">
      <route edges="N_C C_W"/>
   </vehicle>
   <vehicle id="civilian_114" type="civilian" depart="410.40000000000003">
      <route edges="W_C C_N"/>
   </vehicle>
   <vehicle id="civilian_115" type="civilian" depart="414.0">
      <route edges="W_C C_S"/>
   </vehicle>
   <vehicle id="civilian_116" type="civilian" depart="417.6">
      <route edges="S_C C_N"/>
   </vehicle>
   <vehicle id="civilian_117" type="civilian" depart="421.2">
      <route edges="W_C C_N"/>
   </vehicle>
   <vehicle id="civilian_118" type="civilian" depart="424.8">
      <route edges="W_C C_S"/>
   </vehicle>
   <vehicle id="civilian_119" type="civilian" depart="428.40000000000003">
      <route edges="E_C C_W"/>
   </vehicle>
   <vehicle id="civilian_120" type="civilian" depart="432.0">
      <route edges="W_C C_S"/>
   </vehicle>
   <vehicle id="civilian_121" type="civilian" depart="435.6">
      <route edges="S_C C_W"/>
   </vehicle>
   <vehicle id="civilian_122" type="civilian" depart="439.2">
      <route edges="E_C C_N"/>
   </vehicle>
   <vehicle id="emergency_109" type="emergency" depart="441.3290723854438">
      <route edges="E_C C_W"/>
   </vehicle>
   <vehicle id="civilian_123" type="civilian" depart="442.8">
      <route edges="S_C C_N"/>
   </vehicle>
   <vehicle id="emergency_33" type="emergency" depart="442.9567838667117">
      <route edges="E_C C_W"/>
   </vehicle>
   <vehicle id="emergency_6" type="emergency" depart="446.2050792878697">
      <route edges="N_C C_S"/>
   </vehicle>
   <vehicle id="civilian_124" type="civilian" depart="446.40000000000003">
      <route edges="S_C C_N"/>
   </vehicle>
   <vehicle id="civilian_125" type="civilian" depart="450.0">
      <route edges="N_C C_E"/>
   </vehicle>
   <vehicle id="civilian_126" type="civilian" depart="453.6">
      <route edges="W_C C_E"/>
   </vehicle>
   <vehicle id="civilian_127" type="civilian" depart="457.2">
      <route edges="S_C C_E"/>
   </vehicle>
   <vehicle id="civilian_128" type="civilian" depart="460.8">
      <route edges="N_C C_S"/>
   </vehicle>
   <vehicle id="civilian_129" type="civilian" depart="464.40000000000003">
      <route edges="N_C C_E"/>
   </vehicle>
   <vehicle id="emergency_0" type="emergency" depart="467.2334680260742">
      <route edges="E_C C_W"/>
   </vehicle>
   <vehicle id="civilian_130" type="civilian" depart="468.0">
      <route edges="W_C C_E"/>
   </vehicle>
   <vehicle id="civilian_131" type="civilian" depart="471.6">
      <route edges="N_C C_S"/>
   </vehicle>
   <vehicle id="civilian_132" type="civilian" depart="475.2">
      <route edges="N_C C_E"/>
   </vehicle>
   <vehicle id="emergency_55" type="emergency" depart="477.2239496632696">
      <route edges="S_C C_N"/>
   </vehicle>
   <vehicle id="civilian_133" type="civilian" depart="478.8">
      <route edges="N_C C_W"/>
   </vehicle>
   <vehicle id="civilian_134" type="civilian" depart="482.40000000000003">
      <route edges="S_C C_E"/>
   </vehicle>
   <vehicle id="civilian_135" type="civilian" depart="486.0">
      <route edges="S_C C_E"/>
   </vehicle>
   <vehicle id="civilian_136" type="civilian" depart="489.6">
      <route edges="S_C C_E"/>
   </vehicle>
   <vehicle id="civilian_137" type="civilian" depart="493.2">
      <route edges="S_C C_W"/>
   </vehicle>
   <vehicle id="civilian_138" type="civilian" depart="496.8">
      <route edges="S_C C_E"/>
   </vehicle>
   <vehicle id="civilian_139" type="civilian" depart="500.40000000000003">
      <route edges="E_C C_N"/>
   </vehicle>
   <vehicle id="civilian_140" type="civilian" depart="504.0">
      <route edges="E_C C_S"/>
   </vehicle>
   <vehicle id="civilian_141" type="civilian" depart="507.6">
      <route edges="E_C C_W"/>
   </vehicle>
   <vehicle id="civilian_142" type="civilian" depart="511.2">
      <route edges="N_C C_S"/>
   </vehicle>
   <vehicle id="civilian_143" type="civilian" depart="514.8000000000001">
      <route edges="N_C C_W"/>
   </vehicle>
   <vehicle id="civilian_144" type="civilian" depart="518.4">
      <route edges="S_C C_W"/>
   </vehicle>
   <vehicle id="civilian_145" type="civilian" depart="522.0">
      <route edges="N_C C_W"/>
   </vehicle>
   <vehicle id="civilian_146" type="civilian" depart="525.6">
      <route edges="N_C C_S"/>
   </vehicle>
   <vehicle id="civilian_147" type="civilian" depart="529.2">
      <route edges="N_C C_S"/>
   </vehicle>
   <vehicle id="civilian_148" type="civilian" depart="532.8000000000001">
      <route edges="S_C C_W"/>
   </vehicle>
   <vehicle id="civilian_149" type="civilian" depart="536.4">
      <route edges="S_C C_N"/>
   </vehicle>
   <vehicle id="civilian_150" type="civilian" depart="540.0">
      <route edges="E_C C_N"/>
   </vehicle>
   <vehicle id="civilian_151" type="civilian" depart="543.6">
      <route edges="W_C C_S"/>
   </vehicle>
   <vehicle id="civilian_152" type="civilian" depart="547.2">
      <route edges="S_C C_W"/>
   </vehicle>
   <vehicle id="civilian_153" type="civilian" depart="550.8000000000001">
      <route edges="W_C C_S"/>
   </vehicle>
   <vehicle id="civilian_154" type="civilian" depart="554.4">
      <route edges="S_C C_N"/>
   </vehicle>
   <vehicle id="civilian_155" type="civilian" depart="558.0">
      <route edges="S_C C_N"/>
   </vehicle>
   <vehicle id="emergency_140" type="emergency" depart="560.2646291659653">
      <route edges="N_C C_S"/>
   </vehicle>
   <vehicle id="civilian_156" type="civilian" depart="561.6">
      <route edges="S_C C_E"/>
   </vehicle>
   <vehicle id="civilian_157" type="civilian" depart="565.2">
      <route edges="S_C C_W"/>
   </vehicle>
   <vehicle id="emergency_156" type="emergency" depart="568.0863740012903">
      <route edges="E_C C_W"/>
   </vehicle>
   <vehicle id="civilian_158" type="civilian" depart="568.8000000000001">
      <route edges="S_C C_N"/>
   </vehicle>
   <vehicle id="civilian_159" type="civilian" depart="572.4">
      <route edges="N_C C_S"/>
   </vehicle>
   <vehicle id="civilian_160" type="civilian" depart="576.0">
      <route edges="W_C C_S"/>
   </vehicle>
   <vehicle id="civilian_161" type="civilian" depart="579.6">
      <route edges="N_C C_S"/>
   </vehicle>
   <vehicle id="civilian_162" type="civilian" depart="583.2">
      <route edges="E_C C_S"/>
   </vehicle>
   <vehicle id="civilian_163" type="civilian" depart="586.8000000000001">
      <route edges="W_C C_E"/>
   </vehicle>
   <vehicle id="emergency_116" type="emergency" depart="587.3543665832533">
      <route edges="E_C C_W"/>
   </vehicle>
   <vehicle id="civilian_164" type="civilian" depart="590.4">
      <route edges="S_C C_N"/>
   </vehicle>
   <vehicle id="civilian_165" type="civilian" depart="594.0">
      <route edges="E_C C_W"/>
   </vehicle>
   <vehicle id="civilian_166" type="civilian" depart="597.6">
      <route edges="N_C C_E"/>
   </vehicle>
   <vehicle id="civilian_167" type="civilian" depart="601.2">
      <route edges="S_C C_E"/>
   </vehicle>
   <vehicle id="civilian_168" type="civilian" depart="604.8000000000001">
      <route edges="N_C C_W"/>
   </vehicle>
   <vehicle id="civilian_169" type="civilian" depart="608.4">
      <route edges="S_C C_W"/>
   </vehicle>
   <vehicle id="civilian_170" type="civilian" depart="612.0">
      <route edges="S_C C_N"/>
   </vehicle>
   <vehicle id="civilian_171" type="civilian" depart="615.6">
      <route edges="W_C C_E"/>
   </vehicle>
   <vehicle id="civilian_172" type="civilian" depart="619.2">
      <route edges="S_C C_W"/>
   </vehicle>
   <vehicle id="civilian_173" type="civilian" depart="622.8000000000001">
      <route edges="W_C C_S"/>
   </vehicle>
   <vehicle id="civilian_174" type="civilian" depart="626.4">
      <route edges="S_C C_W"/>
   </vehicle>
   <vehicle id="civilian_175" type="civilian" depart="630.0">
      <route edges="N_C C_S"/>
   </vehicle>
   <vehicle id="civilian_176" type="civilian" depart="633.6">
      <route edges="E_C C_S"/>
   </vehicle>
   <vehicle id="civilian_177" type="civilian" depart="637.2">
      <route edges="N_C C_E"/>
   </vehicle>
   <vehicle id="civilian_178" type="civilian" depart="640.8000000000001">
      <route edges="S_C C_N"/>
   </vehicle>
   <vehicle id="civilian_179" type="civilian" depart="644.4">
      <route edges="E_C C_W"/>
   </vehicle>
   <vehicle id="civilian_180" type="civilian" depart="648.0">
      <route edges="N_C C_W"/>
   </vehicle>
   <vehicle id="civilian_181" type="civilian" depart="651.6">
      <route edges="S_C C_W"/>
   </vehicle>
   <vehicle id="civilian_182" type="civilian" depart="655.2">
      <route edges="W_C C_N"/>
   </vehicle>
   <vehicle id="civilian_183" type="civilian" depart="658.8000000000001">
      <route edges="S_C C_N"/>
   </vehicle>
   <vehicle id="civilian_184" type="civilian" depart="662.4">
      <route edges="S_C C_N"/>
   </vehicle>
   <vehicle id="civilian_185" type="civilian" depart="666.0">
      <route edges="S_C C_E"/>
   </vehicle>
   <vehicle id="emergency_46" type="emergency" depart="669.0496694528066">
      <route edges="W_C C_E"/>
   </vehicle>
   <vehicle id="civilian_186" type="civilian" depart="669.6">
      <route edges="W_C C_E"/>
   </vehicle>
   <vehicle id="emergency_107" type="emergency" depart="672.0405530916084">
      <route edges="N_C C_S"/>
   </vehicle>
   <vehicle id="civilian_187" type="civilian" depart="673.2">
      <route edges="E_C C_N"/>
   </vehicle>
   <vehicle id="civilian_188" type="civilian" depart="676.8000000000001">
      <route edges="S_C C_N"/>
   </vehicle>
   <vehicle id="emergency_186" type="emergency" depart="679.4876137043154">
      <route edges="N_C C_S"/>
   </vehicle>
   <vehicle id="civilian_189" type="civilian" depart="680.4">
      <route edges="S_C C_W"/>
   </vehicle>
   <vehicle id="civilian_190" type="civilian" depart="684.0">
      <route edges="E_C C_N"/>
   </vehicle>
   <vehicle id="civilian_191" type="civilian" depart="687.6">
      <route edges="E_C C_W"/>
   </vehicle>
   <vehicle id="civilian_192" type="civilian" depart="691.2">
      <route edges="N_C C_E"/>
   </vehicle>
   <vehicle id="civilian_193" type="civilian" depart="694.8000000000001">
      <route edges="N_C C_W"/>
   </vehicle>
   <vehicle id="civilian_194" type="civilian" depart="698.4">
      <route edges="E_C C_N"/>
   </vehicle>
   <vehicle id="civilian_195" type="civilian" depart="702.0">
      <route edges="E_C C_S"/>
   </vehicle>
   <vehicle id="civilian_196" type="civilian" depart="705.6">
      <route edges="N_C C_W"/>
   </vehicle>
   <vehicle id="civilian_197" type="civilian" depart="709.2">
      <route edges="W_C C_N"/>
   </vehicle>
   <vehicle id="civilian_198" type="civilian" depart="712.8000000000001">
      <route edges="W_C C_N"/>
   </vehicle>
   <vehicle id="civilian_199" type="civilian" depart="716.4">
      <route edges="E_C C_N"/>
   </vehicle>
   <vehicle id="civilian_200" type="civilian" depart="720.0">
      <route edges="W_C C_E"/>
   </vehicle>
   <vehicle id="civilian_201" type="civilian" depart="723.6">
      <route edges="S_C C_W"/>
   </vehicle>
   <vehicle id="civilian_202" type="civilian" depart="727.2">
      <route edges="E_C C_N"/>
   </vehicle>
   <vehicle id="civilian_203" type="civilian" depart="730.8000000000001">
      <route edges="E_C C_W"/>
   </vehicle>
   <vehicle id="civilian_204" type="civilian" depart="734.4">
      <route edges="S_C C_E"/>
   </vehicle>
   <vehicle id="civilian_205" type="civilian" depart="738.0">
      <route edges="N_C C_E"/>
   </vehicle>
   <vehicle id="civilian_206" type="civilian" depart="741.6">
      <route edges="N_C C_S"/>
   </vehicle>
   <vehicle id="civilian_207" type="civilian" depart="745.2">
      <route edges="S_C C_N"/>
   </vehicle>
   <vehicle id="civilian_208" type="civilian" depart="748.8000000000001">
      <route edges="W_C C_E"/>
   </vehicle>
   <vehicle id="emergency_175" type="emergency" depart="749.6476437390216">
      <route edges="W_C C_E"/>
   </vehicle>
   <vehicle id="civilian_209" type="civilian" depart="752.4">
      <route edges="N_C C_S"/>
   </vehicle>
   <vehicle id="civilian_210" type="civilian" depart="756.0">
      <route edges="S_C C_N"/>
   </vehicle>
   <vehicle id="emergency_31" type="emergency" depart="758.4039690821248">
      <route edges="W_C C_E"/>
   </vehicle>
   <vehicle id="civilian_211" type="civilian" depart="759.6">
      <route edges="S_C C_W"/>
   </vehicle>
   <vehicle id="civilian_212" type="civilian" depart="763.2">
      <route edges="E_C C_W"/>
   </vehicle>
   <vehicle id="civilian_213" type="civilian" depart="766.8000000000001">
      <route edges="E_C C_W"/>
   </vehicle>
   <vehicle id="civilian_214" type="civilian" depart="770.4">
      <route edges="W_C C_E"/>
   </vehicle>
   <vehicle id="civilian_215" type="civilian" depart="774.0">
      <route edges="W_C C_S"/>
   </vehicle>
   <vehicle id="civilian_216" type="civilian" depart="777.6">
      <route edges="S_C C_E"/>
   </vehicle>
   <vehicle id="civilian_217" type="civilian" depart="781.2">
      <route edges="E_C C_S"/>
   </vehicle>
   <vehicle id="civilian_218" type="civilian" depart="784.8000000000001">
      <route edges="W_C C_S"/>
   </vehicle>
   <vehicle id="civilian_219" type="civilian" depart="788.4">
      <route edges="S_C C_E"/>
   </vehicle>
   <vehicle id="civilian_220" type="civilian" depart="792.0">
      <route edges="S_C C_N"/>
   </vehicle>
   <vehicle id="civilian_221" type="civilian" depart="795.6">
      <route edges="N_C C_S"/>
   </vehicle>
   <vehicle id="civilian_222" type="civilian" depart="799.2">
      <route edges="W_C C_N"/>
   </vehicle>
   <vehicle id="civilian_223" type="civilian" depart="802.8000000000001">
      <route edges="W_C C_E"/>
   </vehicle>
   <vehicle id="emergency_93" type="emergency" depart="804.6958237000458">
      <route edges="S_C C_N"/>
   </vehicle>
   <vehicle id="civilian_224" type="civilian" depart="806.4">
      <route edges="N_C C_S"/>
   </vehicle>
   <vehicle id="civilian_225" type="civilian" depart="810.0">
      <route edges="S_C C_E"/>
   </vehicle>
   <vehicle id="civilian_226" type="civilian" depart="813.6">
      <route edges="N_C C_S"/>
   </vehicle>
   <vehicle id="emergency_193" type="emergency" depart="814.402522861475">
      <route edges="N_C C_S"/>
   </vehicle>
   <vehicle id="civilian_227" type="civilian" depart="817.2">
      <route edges="E_C C_S"/>
   </vehicle>
   <vehicle id="civilian_228" type="civilian" depart="820.8000000000001">
      <route edges="N_C C_W"/>
   </vehicle>